*SPEF "IEEE 1481.1999"
*DESIGN "nibble_top"
*DATE "20:36:00 Saturday July 13, 2019"
*VENDOR "unknown"
*PROGRAM "qrouter"
*VERSION "unknown"
*DESIGN_FLOW "qflow"
*DIVIDER /
*DELIMITER :
*BUS_DELIMITER <>
*T_UNIT 1 PS
*C_UNIT 1 FF
*R_UNIT 1 OHM
*L_UNIT 1 HENRY

*NAME_MAP
*1 SEL_A[4]
*2 _1013_
*3 _1082_
*4 _1004_
*5 _1043_
*6 _955_
*7 _972_
*8 _1052_
*9 _1091_
*10 _963_
*11 SEL_B[4]
*12 _976_
*13 _993_
*14 _1062_
*15 _1032_
*16 _1110_
*17 _1101_
*18 _1071_
*19 _984_
*20 _1023_
*21 SEL_A[7]
*22 _1257_
*23 _1138_
*24 _1218_
*25 _1209_
*26 _1248_
*27 _1170_
*28 _1129_
*29 _1179_
*30 _1121_
*31 SEL_B[7]
*32 _1189_
*33 _1237_
*34 _1150_
*35 _1198_
*36 _1267_
*37 _1276_
*38 _1142_
*39 _1159_
*40 _1228_
*41 SEL_A[10]
*42 _1287_
*43 _1375_
*44 _1304_
*45 _1384_
*46 _1423_
*47 _1295_
*48 _1414_
*49 _1336_
*50 _1345_
*51 SEL_B[10]
*52 _1433_
*53 _1364_
*54 _1442_
*55 _1403_
*56 _1394_
*57 _1325_
*58 _1316_
*59 _1355_
*60 _1308_
*61 SEL_A[1]
*62 _925_
*63 _789_
*64 _797_
*65 _877_
*66 _847_
*67 _916_
*68 _838_
*69 _886_
*70 _806_
*71 SEL_B[1]
*72 _827_
*73 _896_
*74 _935_
*75 _944_
*76 _818_
*77 _810_
*78 _905_
*79 _857_
*80 _866_
*81 _300_
*82 _955_
*83 _1039_
*84 _959_
*85 _1009_
*86 _1078_
*87 _1000_
*88 _1087_
*89 _968_
*90 _1048_
*91 _163_
*92 _976_
*93 _980_
*94 _989_
*95 _1058_
*96 _1028_
*97 _1097_
*98 _1067_
*99 _1019_
*100 _1106_
*101 _459_
*102 _1121_
*103 _1125_
*104 _1244_
*105 _1175_
*106 _1166_
*107 _1214_
*108 _1253_
*109 _1134_
*110 _1205_
*111 _322_
*112 _1142_
*113 _1194_
*114 _1155_
*115 _1263_
*116 _1233_
*117 _1185_
*118 _1224_
*119 _1272_
*120 _1146_
*121 _618_
*122 _1287_
*123 _1371_
*124 _1300_
*125 _1380_
*126 _1419_
*127 _1410_
*128 _1291_
*129 _1332_
*130 _1341_
*131 _481_
*132 _1308_
*133 _1360_
*134 _1438_
*135 _1429_
*136 _1321_
*137 _1351_
*138 _1312_
*139 _1399_
*140 _1390_
*141 _141_
*142 _789_
*143 _921_
*144 _882_
*145 _802_
*146 _873_
*147 _834_
*148 _843_
*149 _793_
*150 _912_
*151 _4_
*152 _810_
*153 _940_
*154 _853_
*155 _892_
*156 _931_
*157 _862_
*158 _814_
*159 _901_
*160 _823_
*161 CLK_bF_buf2
*162 CLKBUF1_insert48
*163 _783_
*164 _1281_
*165 _1280_
*166 _1616_
*167 _1613_
*168 _782_
*169 _1283_
*170 CLK_bF_buf3
*171 CLKBUF1_insert47
*172 _1447_
*173 _1446_
*174 _949_
*175 _1606_
*176 _1610_
*177 _1609_
*178 _1611_
*179 CLK_bF_buf4
*180 CLKBUF1_insert46
*181 _785_
*182 _1601_
*183 _1602_
*184 _784_
*185 _1603_
*186 _1607_
*187 _1612_
*188 CLK_bF_buf5
*189 CLKBUF1_insert45
*190 _1615_
*191 _1618_
*192 _950_
*193 _1605_
*194 _1617_
*195 _1604_
*196 _1614_
*197 RESET_L_bF_buf3
*198 BUFX2_insert41
*199 _1465_
*200 _1284_
*201 _1461_
*202 _1460_
*203 _1459_
*204 _1458_
*205 _952_
*206 RESET_L_bF_buf4
*207 BUFX2_insert40
*208 _786_
*209 _1462_
*210 _1451_
*211 _1450_
*212 _777_
*213 _1463_
*214 _1452_
*215 SEL_A_11_bF_buf3
*216 BUFX2_insert36
*217 _1377_
*218 _1297_
*219 _1294_
*220 _1416_
*221 _1422_
*222 _1421_
*223 _1418_
*224 SEL_A_11_bF_buf4
*225 BUFX2_insert35
*226 _1290_
*227 _1288_
*228 _1329_
*229 _1331_
*230 _1373_
*231 _1340_
*232 _1335_
*233 SEL_A_2_bF_buf3
*234 BUFX2_insert31
*235 _870_
*236 _842_
*237 _840_
*238 _846_
*239 _845_
*240 _831_
*241 _833_
*242 SEL_A_2_bF_buf4
*243 BUFX2_insert30
*244 _792_
*245 _795_
*246 _790_
*247 _796_
*248 _875_
*249 _876_
*250 _872_
*251 SEL_A_5_bF_buf3
*252 BUFX2_insert26
*253 _1012_
*254 _961_
*255 _1080_
*256 _1081_
*257 _1077_
*258 _997_
*259 _962_
*260 SEL_A_5_bF_buf4
*261 BUFX2_insert25
*262 _1008_
*263 _1003_
*264 _1002_
*265 _999_
*266 _1011_
*267 _1075_
*268 _1006_
*269 SEL_B_2_bF_buf3
*270 BUFX2_insert21
*271 _904_
*272 _903_
*273 _811_
*274 _898_
*275 _900_
*276 _813_
*277 _937_
*278 SEL_B_2_bF_buf4
*279 BUFX2_insert20
*280 _939_
*281 _942_
*282 _822_
*283 _894_
*284 _891_
*285 _825_
*286 _820_
*287 SEL_A_8_bF_buf3
*288 BUFX2_insert16
*289 _1136_
*290 _1216_
*291 _1137_
*292 _1256_
*293 _1131_
*294 _1202_
*295 _1204_
*296 SEL_A_8_bF_buf4
*297 BUFX2_insert15
*298 _1217_
*299 _1133_
*300 _1255_
*301 _1250_
*302 _1211_
*303 _1213_
*304 _1252_
*305 SEL_B_5_bF_buf3
*306 BUFX2_insert11
*307 _988_
*308 _986_
*309 _1016_
*310 _1064_
*311 _1066_
*312 _1055_
*313 _1070_
*314 SEL_B_5_bF_buf4
*315 BUFX2_insert10
*316 _977_
*317 _1103_
*318 _992_
*319 _991_
*320 _1105_
*321 _1061_
*322 _979_
*323 SEL_B_8_bF_buf3
*324 BUFX2_insert6
*325 _1184_
*326 _1182_
*327 _1145_
*328 _1143_
*329 _1271_
*330 _1149_
*331 _1148_
*332 SEL_B_8_bF_buf4
*333 BUFX2_insert5
*334 _1275_
*335 _1152_
*336 _1274_
*337 _1158_
*338 _1157_
*339 _1262_
*340 _1223_
*341 SEL_B_11_bF_buf3
*342 BUFX2_insert1
*343 _1431_
*344 _1432_
*345 _1318_
*346 _1320_
*347 _1359_
*348 _1428_
*349 _1323_
*350 SEL_B_11_bF_buf4
*351 BUFX2_insert0
*352 _1357_
*353 _1363_
*354 _1441_
*355 _1393_
*356 _1398_
*357 _1324_
*358 _1426_
*359 _677_
*360 _1528_
*361 _1549_
*362 _1529_
*363 _1542_
*364 _1561_
*365 _1563_
*366 _1567_
*367 _1556_
*368 _687_
*369 _1538_
*370 _1565_
*371 _1546_
*372 _1539_
*373 _1558_
*374 _1553_
*375 _1552_
*376 _1568_
*377 CLK
*378 CLKBUF1_insert45
*379 CLKBUF1_insert46
*380 CLKBUF1_insert47
*381 CLKBUF1_insert50
*382 CLKBUF1_insert49
*383 CLKBUF1_insert48
*384 CLK_bF_buf0
*385 CLKBUF1_insert50
*386 _1448_
*387 _1449_
*388 _1620_
*389 _948_
*390 _1619_
*391 _1282_
*392 CLK_bF_buf1
*393 CLKBUF1_insert49
*394 _1608_
*395 _951_
*396 _1117_
*397 _1115_
*398 _1114_
*399 _1116_
*400 RESET_L_bF_buf0
*401 BUFX2_insert44
*402 _1118_
*403 _1456_
*404 _1453_
*405 _1457_
*406 _1454_
*407 _1455_
*408 RESET_L_bF_buf1
*409 BUFX2_insert43
*410 _1464_
*411 _1496_
*412 _1563_
*413 _1551_
*414 _1466_
*415 _1544_
*416 RESET_L_bF_buf2
*417 BUFX2_insert42
*418 _774_
*419 _776_
*420 _775_
*421 _1553_
*422 _1565_
*423 _1546_
*424 SEL_A_11_bF_buf0
*425 BUFX2_insert39
*426 _1413_
*427 _1412_
*428 _1338_
*429 _1344_
*430 _1343_
*431 _1334_
*432 SEL_A_11_bF_buf1
*433 BUFX2_insert38
*434 _1407_
*435 _1368_
*436 _1374_
*437 _1370_
*438 _1409_
*439 _1293_
*440 SEL_A_11_bF_buf2
*441 BUFX2_insert37
*442 _1382_
*443 _1299_
*444 _1379_
*445 _1383_
*446 _1302_
*447 _1303_
*448 SEL_A_2_bF_buf0
*449 BUFX2_insert34
*450 _909_
*451 _911_
*452 _836_
*453 _915_
*454 _914_
*455 _837_
*456 SEL_A_2_bF_buf1
*457 BUFX2_insert33
*458 _923_
*459 _801_
*460 _924_
*461 _799_
*462 _804_
*463 _805_
*464 SEL_A_2_bF_buf2
*465 BUFX2_insert32
*466 _885_
*467 _884_
*468 _881_
*469 _920_
*470 _918_
*471 _879_
*472 SEL_A_5_bF_buf0
*473 BUFX2_insert29
*474 _1084_
*475 _1086_
*476 _965_
*477 _971_
*478 _970_
*479 _967_
*480 SEL_A_5_bF_buf1
*481 BUFX2_insert28
*482 _1051_
*483 _1045_
*484 _1089_
*485 _1047_
*486 _1090_
*487 _1050_
*488 SEL_A_5_bF_buf2
*489 BUFX2_insert27
*490 _1041_
*491 _958_
*492 _956_
*493 _1042_
*494 _1036_
*495 _1038_
*496 SEL_B_2_bF_buf0
*497 BUFX2_insert24
*498 _934_
*499 _889_
*500 _930_
*501 _895_
*502 _933_
*503 _826_
*504 SEL_B_2_bF_buf1
*505 BUFX2_insert23
*506 _855_
*507 _816_
*508 _817_
*509 _852_
*510 _850_
*511 _856_
*512 SEL_B_2_bF_buf2
*513 BUFX2_insert22
*514 _928_
*515 _859_
*516 _865_
*517 _861_
*518 _864_
*519 _943_
*520 SEL_A_8_bF_buf0
*521 BUFX2_insert19
*522 _1168_
*523 _1243_
*524 _1241_
*525 _1246_
*526 _1169_
*527 _1247_
*528 SEL_A_8_bF_buf1
*529 BUFX2_insert18
*530 _1124_
*531 _1207_
*532 _1208_
*533 _1122_
*534 _1172_
*535 _1174_
*536 SEL_A_8_bF_buf2
*537 BUFX2_insert17
*538 _1128_
*539 _1178_
*540 _1163_
*541 _1165_
*542 _1177_
*543 _1127_
*544 SEL_B_5_bF_buf0
*545 BUFX2_insert14
*546 _982_
*547 _983_
*548 _1022_
*549 _1069_
*550 _1021_
*551 _1018_
*552 SEL_B_5_bF_buf1
*553 BUFX2_insert13
*554 _1025_
*555 _1100_
*556 _1094_
*557 _1031_
*558 _1030_
*559 _1109_
*560 SEL_B_5_bF_buf2
*561 BUFX2_insert12
*562 _1060_
*563 _1099_
*564 _1096_
*565 _1027_
*566 _1057_
*567 _1108_
*568 SEL_B_8_bF_buf0
*569 BUFX2_insert9
*570 _1191_
*571 _1154_
*572 _1269_
*573 _1221_
*574 _1227_
*575 _1226_
*576 SEL_B_8_bF_buf1
*577 BUFX2_insert8
*578 _1230_
*579 _1232_
*580 _1235_
*581 _1236_
*582 _1187_
*583 _1188_
*584 SEL_B_8_bF_buf2
*585 BUFX2_insert7
*586 _1197_
*587 _1266_
*588 _1260_
*589 _1265_
*590 _1196_
*591 _1193_
*592 SEL_B_11_bF_buf0
*593 BUFX2_insert4
*594 _1311_
*595 _1309_
*596 _1350_
*597 _1348_
*598 _1396_
*599 _1392_
*600 SEL_B_11_bF_buf1
*601 BUFX2_insert3
*602 _1353_
*603 _1354_
*604 _1401_
*605 _1315_
*606 _1314_
*607 _1402_
*608 SEL_B_11_bF_buf2
*609 BUFX2_insert2
*610 _1437_
*611 _1362_
*612 _1440_
*613 _1389_
*614 _1387_
*615 _1435_
*616 _746_
*617 _1466_
*618 _1497_
*619 _1530_
*620 _1557_
*621 _1540_
*622 _1559_
*623 _1569_
*624 \nibble_mayor_nibble_C\[3]
*625 _1616_
*626 _1536_
*627 _1470_
*628 _1482_
*629 _1483_
*630 _1496_
*631 _1467_
*632 \nibble_mayor_nibble_D\[3]
*633 _1620_
*634 _1468_
*635 _1481_
*636 _1470_
*637 _1482_
*638 _1483_
*639 _1496_
*640 \nibble_mayor_nibble_C\[2]
*641 _1615_
*642 _1471_
*643 _1532_
*644 _1472_
*645 _1485_
*646 _1545_
*647 _1531_
*648 _644_
*649 _1494_
*650 _1559_
*651 _1564_
*652 _1545_
*653 _1540_
*654 _1569_
*655 _1584_
*656 RESET_L
*657 BUFX2_insert43
*658 BUFX2_insert41
*659 BUFX2_insert40
*660 BUFX2_insert42
*661 BUFX2_insert44
*662 SEL_A[11]
*663 BUFX2_insert37
*664 BUFX2_insert36
*665 BUFX2_insert38
*666 BUFX2_insert35
*667 BUFX2_insert39
*668 SEL_A[2]
*669 BUFX2_insert32
*670 BUFX2_insert31
*671 BUFX2_insert30
*672 BUFX2_insert34
*673 BUFX2_insert33
*674 SEL_A[5]
*675 BUFX2_insert27
*676 BUFX2_insert28
*677 BUFX2_insert29
*678 BUFX2_insert26
*679 BUFX2_insert25
*680 SEL_B[2]
*681 BUFX2_insert24
*682 BUFX2_insert22
*683 BUFX2_insert20
*684 BUFX2_insert23
*685 BUFX2_insert21
*686 SEL_A[8]
*687 BUFX2_insert15
*688 BUFX2_insert18
*689 BUFX2_insert17
*690 BUFX2_insert19
*691 BUFX2_insert16
*692 SEL_B[5]
*693 BUFX2_insert13
*694 BUFX2_insert11
*695 BUFX2_insert10
*696 BUFX2_insert14
*697 BUFX2_insert12
*698 SEL_B[8]
*699 BUFX2_insert7
*700 BUFX2_insert8
*701 BUFX2_insert6
*702 BUFX2_insert9
*703 BUFX2_insert5
*704 SEL_B[11]
*705 BUFX2_insert1
*706 BUFX2_insert3
*707 BUFX2_insert0
*708 BUFX2_insert4
*709 BUFX2_insert2
*710 SEL_A[3]
*711 _954_
*712 _1014_
*713 _973_
*714 _1092_
*715 _1053_
*716 SEL_B[3]
*717 _994_
*718 _975_
*719 _1063_
*720 _1024_
*721 _1102_
*722 SEL_AB[1]
*723 _995_
*724 _1112_
*725 _1073_
*726 _1034_
*727 _953_
*728 SEL_AB[2]
*729 _1200_
*730 _1278_
*731 _1239_
*732 _1161_
*733 _1119_
*734 SEL_A[6]
*735 _1139_
*736 _1180_
*737 _1258_
*738 _1219_
*739 _1120_
*740 SEL_B[6]
*741 _1190_
*742 _1160_
*743 _1229_
*744 _1268_
*745 _1141_
*746 SEL_AB[3]
*747 _1405_
*748 _1366_
*749 _1327_
*750 _1444_
*751 _1285_
*752 SEL_A[9]
*753 _1305_
*754 _1385_
*755 _1424_
*756 _1286_
*757 _1346_
*758 SEL_B[9]
*759 _1434_
*760 _1326_
*761 _1356_
*762 _1307_
*763 _1395_
*764 \nibble_mayor_nibble_D\[2]
*765 _1619_
*766 _1471_
*767 _1532_
*768 _1472_
*769 _1546_
*770 _1484_
*771 \nibble_mayor_nibble_D\[1]
*772 _1618_
*773 _1534_
*774 _1475_
*775 _1553_
*776 _1488_
*777 _1478_
*778 _756_
*779 _1476_
*780 _1478_
*781 _1534_
*782 _1558_
*783 _1552_
*784 _1489_
*785 \nibble_mayor_nibble_B\[3]
*786 _1612_
*787 _1502_
*788 _1511_
*789 _1495_
*790 _1515_
*791 _1514_
*792 \nibble_mayor_nibble_B\[2]
*793 _1611_
*794 _1500_
*795 _1519_
*796 _1516_
*797 _1511_
*798 _1518_
*799 _666_
*800 _1517_
*801 _1528_
*802 _1555_
*803 _1543_
*804 _1518_
*805 _1550_
*806 _716_
*807 _1567_
*808 _1581_
*809 _1585_
*810 _1570_
*811 _1586_
*812 _1593_
*813 SEL_AB[0]
*814 _946_
*815 _829_
*816 _868_
*817 _907_
*818 _787_
*819 SEL_A[0]
*820 _807_
*821 _887_
*822 _926_
*823 _788_
*824 _848_
*825 SEL_B[0]
*826 _897_
*827 _828_
*828 _936_
*829 _858_
*830 _809_
*831 DATA_A[27]
*832 _1333_
*833 _1167_
*834 _835_
*835 _1001_
*836 DATA_A[11]
*837 _1335_
*838 _1169_
*839 _837_
*840 _1003_
*841 _299_
*842 _954_
*843 _1044_
*844 _964_
*845 _1083_
*846 _1005_
*847 DATA_A[7]
*848 _1006_
*849 _1338_
*850 _1172_
*851 _840_
*852 DATA_A[23]
*853 _1339_
*854 _1173_
*855 _841_
*856 _1007_
*857 DATA_A[15]
*858 _1010_
*859 _1342_
*860 _844_
*861 _1176_
*862 DATA_A[31]
*863 _1011_
*864 _1343_
*865 _845_
*866 _1177_
*867 _298_
*868 _953_
*869 _1093_
*870 _1054_
*871 _1015_
*872 _974_
*873 DATA_B[7]
*874 _1182_
*875 _850_
*876 _1348_
*877 _1016_
*878 DATA_B[23]
*879 _1183_
*880 _851_
*881 _1349_
*882 _1017_
*883 DATA_B[31]
*884 _1186_
*885 _854_
*886 _1352_
*887 _1020_
*888 DATA_B[15]
*889 _1188_
*890 _856_
*891 _1354_
*892 _1022_
*893 DATA_B[3]
*894 _859_
*895 _1191_
*896 _1357_
*897 _1025_
*898 DATA_B[19]
*899 _1358_
*900 _1026_
*901 _860_
*902 _1192_
*903 DATA_B[11]
*904 _1195_
*905 _863_
*906 _1361_
*907 _1029_
*908 DATA_B[27]
*909 _864_
*910 _1362_
*911 _1030_
*912 _1196_
*913 _162_
*914 _975_
*915 _1111_
*916 _1033_
*917 _1072_
*918 _985_
*919 _297_
*920 _952_
*921 _996_
*922 _1035_
*923 _1074_
*924 _1113_
*925 DATA_A[0]
*926 _1036_
*927 _1368_
*928 _870_
*929 _1202_
*930 DATA_A[16]
*931 _1037_
*932 _1369_
*933 _1203_
*934 _871_
*935 DATA_A[24]
*936 _1040_
*937 _874_
*938 _1206_
*939 _1372_
*940 DATA_A[8]
*941 _1042_
*942 _1374_
*943 _876_
*944 _1208_
*945 DATA_A[4]
*946 _879_
*947 _1377_
*948 _1045_
*949 _1211_
*950 DATA_A[20]
*951 _880_
*952 _1212_
*953 _1378_
*954 _1046_
*955 DATA_A[12]
*956 _883_
*957 _1215_
*958 _1381_
*959 _1049_
*960 DATA_A[28]
*961 _884_
*962 _1216_
*963 _1382_
*964 _1050_
*965 DATA_B[4]
*966 _889_
*967 _1387_
*968 _1055_
*969 _1221_
*970 DATA_B[20]
*971 _1388_
*972 _1056_
*973 _890_
*974 _1222_
*975 DATA_B[28]
*976 _893_
*977 _1225_
*978 _1391_
*979 _1059_
*980 DATA_B[12]
*981 _1061_
*982 _1393_
*983 _895_
*984 _1227_
*985 DATA_B[0]
*986 _1230_
*987 _898_
*988 _1396_
*989 _1064_
*990 DATA_B[16]
*991 _899_
*992 _1397_
*993 _1065_
*994 _1231_
*995 DATA_B[8]
*996 _1234_
*997 _902_
*998 _1400_
*999 _1068_
*1000 DATA_B[24]
*1001 _1235_
*1002 _903_
*1003 _1401_
*1004 _1069_
*1005 DATA_A[1]
*1006 _1407_
*1007 _1075_
*1008 _1241_
*1009 _909_
*1010 DATA_A[17]
*1011 _1408_
*1012 _1242_
*1013 _910_
*1014 _1076_
*1015 DATA_A[25]
*1016 _1079_
*1017 _1411_
*1018 _1245_
*1019 _913_
*1020 DATA_A[9]
*1021 _1081_
*1022 _1413_
*1023 _1247_
*1024 _915_
*1025 DATA_A[5]
*1026 _1084_
*1027 _1416_
*1028 _1250_
*1029 _918_
*1030 DATA_A[21]
*1031 _919_
*1032 _1251_
*1033 _1417_
*1034 _1085_
*1035 DATA_A[13]
*1036 _1088_
*1037 _922_
*1038 _1254_
*1039 _1420_
*1040 DATA_A[29]
*1041 _1089_
*1042 _923_
*1043 _1421_
*1044 _1255_
*1045 DATA_B[5]
*1046 _1260_
*1047 _928_
*1048 _1426_
*1049 _1094_
*1050 DATA_B[21]
*1051 _929_
*1052 _1427_
*1053 _1095_
*1054 _1261_
*1055 DATA_B[29]
*1056 _932_
*1057 _1430_
*1058 _1098_
*1059 _1264_
*1060 DATA_B[13]
*1061 _934_
*1062 _1432_
*1063 _1100_
*1064 _1266_
*1065 DATA_B[1]
*1066 _1103_
*1067 _1435_
*1068 _937_
*1069 _1269_
*1070 DATA_B[17]
*1071 _938_
*1072 _1436_
*1073 _1104_
*1074 _1270_
*1075 DATA_B[9]
*1076 _941_
*1077 _1439_
*1078 _1107_
*1079 _1273_
*1080 DATA_B[25]
*1081 _942_
*1082 _1440_
*1083 _1108_
*1084 _1274_
*1085 _456_
*1086 _1118_
*1087 _1240_
*1088 _1162_
*1089 _1279_
*1090 _1201_
*1091 _457_
*1092 _1119_
*1093 _1181_
*1094 _1140_
*1095 _1220_
*1096 _1259_
*1097 _458_
*1098 _1120_
*1099 _1210_
*1100 _1130_
*1101 _1171_
*1102 _1249_
*1103 DATA_A[2]
*1104 _1288_
*1105 _790_
*1106 _1122_
*1107 _956_
*1108 DATA_A[18]
*1109 _1289_
*1110 _791_
*1111 _1123_
*1112 _957_
*1113 DATA_A[26]
*1114 _794_
*1115 _1292_
*1116 _1126_
*1117 _960_
*1118 DATA_A[10]
*1119 _1294_
*1120 _796_
*1121 _1128_
*1122 _962_
*1123 DATA_A[6]
*1124 _965_
*1125 _1297_
*1126 _799_
*1127 _1131_
*1128 DATA_A[22]
*1129 _966_
*1130 _1298_
*1131 _800_
*1132 _1132_
*1133 DATA_A[14]
*1134 _1301_
*1135 _803_
*1136 _1135_
*1137 _969_
*1138 DATA_A[30]
*1139 _1302_
*1140 _804_
*1141 _1136_
*1142 _970_
*1143 _321_
*1144 _1141_
*1145 _1199_
*1146 _1277_
*1147 _1238_
*1148 _1151_
*1149 DATA_B[2]
*1150 _977_
*1151 _1309_
*1152 _811_
*1153 _1143_
*1154 DATA_B[18]
*1155 _1310_
*1156 _812_
*1157 _1144_
*1158 _978_
*1159 DATA_B[26]
*1160 _1147_
*1161 _815_
*1162 _1313_
*1163 _981_
*1164 DATA_B[10]
*1165 _983_
*1166 _1315_
*1167 _817_
*1168 _1149_
*1169 DATA_B[6]
*1170 _1318_
*1171 _820_
*1172 _986_
*1173 _1152_
*1174 DATA_B[22]
*1175 _1319_
*1176 _821_
*1177 _987_
*1178 _1153_
*1179 DATA_B[14]
*1180 _990_
*1181 _1322_
*1182 _824_
*1183 _1156_
*1184 DATA_B[30]
*1185 _1323_
*1186 _825_
*1187 _1157_
*1188 _991_
*1189 DATA_A[3]
*1190 _1329_
*1191 _997_
*1192 _1163_
*1193 _831_
*1194 DATA_A[19]
*1195 _1330_
*1196 _998_
*1197 _832_
*1198 _1164_
*1199 _615_
*1200 _1284_
*1201 _1367_
*1202 _1328_
*1203 _1406_
*1204 _1445_
*1205 _616_
*1206 _1285_
*1207 _1347_
*1208 _1425_
*1209 _1306_
*1210 _1386_
*1211 _617_
*1212 _1286_
*1213 _1415_
*1214 _1337_
*1215 _1296_
*1216 _1376_
*1217 _480_
*1218 _1307_
*1219 _1443_
*1220 _1365_
*1221 _1317_
*1222 _1404_
*1223 \nibble_mayor_nibble_C\[0]
*1224 _1613_
*1225 _1477_
*1226 _1584_
*1227 _1490_
*1228 _1564_
*1229 \nibble_mayor_nibble_D\[0]
*1230 _1617_
*1231 _1490_
*1232 _1491_
*1233 _1565_
*1234 _1478_
*1235 \nibble_mayor_nibble_A\[3]
*1236 _1608_
*1237 _1504_
*1238 _1509_
*1239 _1526_
*1240 _1495_
*1241 _645_
*1242 _1495_
*1243 _1588_
*1244 _1578_
*1245 _1498_
*1246 _1497_
*1247 \nibble_mayor_nibble_A\[2]
*1248 _1607_
*1249 _1529_
*1250 _1510_
*1251 _1526_
*1252 _1501_
*1253 \nibble_mayor_nibble_B\[1]
*1254 _1610_
*1255 _1555_
*1256 _1523_
*1257 _1521_
*1258 _1503_
*1259 \nibble_mayor_nibble_A\[1]
*1260 _1606_
*1261 _1520_
*1262 _1506_
*1263 _1504_
*1264 _1556_
*1265 _659_
*1266 _1510_
*1267 _1542_
*1268 _1511_
*1269 _1519_
*1270 _1516_
*1271 _662_
*1272 _1513_
*1273 _1518_
*1274 _1550_
*1275 _1555_
*1276 _1543_
*1277 _694_
*1278 _1545_
*1279 _1547_
*1280 _1598_
*1281 _1576_
*1282 _1574_
*1283 _695_
*1284 _1546_
*1285 _1574_
*1286 _1576_
*1287 _1547_
*1288 _1598_
*1289 _701_
*1290 _1552_
*1291 _1595_
*1292 _1554_
*1293 _1579_
*1294 _1580_
*1295 _702_
*1296 _1553_
*1297 _1595_
*1298 _1554_
*1299 _1579_
*1300 _1580_
*1301 _138_
*1302 _786_
*1303 _869_
*1304 _908_
*1305 _830_
*1306 _947_
*1307 _139_
*1308 _787_
*1309 _849_
*1310 _927_
*1311 _808_
*1312 _888_
*1313 _140_
*1314 _788_
*1315 _878_
*1316 _798_
*1317 _839_
*1318 _917_
*1319 _3_
*1320 _809_
*1321 _867_
*1322 _945_
*1323 _819_
*1324 _906_
*1325 _754_
*1326 _1474_
*1327 _1537_
*1328 _1494_
*1329 _1480_
*1330 _755_
*1331 _1475_
*1332 _1479_
*1333 _1559_
*1334 _1489_
*1335 \nibble_mayor_nibble_C\[1]
*1336 _1614_
*1337 _1479_
*1338 _1488_
*1339 _1476_
*1340 _757_
*1341 _1477_
*1342 _1478_
*1343 _1492_
*1344 _1568_
*1345 _646_
*1346 _1496_
*1347 _1498_
*1348 _1577_
*1349 _1497_
*1350 _647_
*1351 _1498_
*1352 _1575_
*1353 _1578_
*1354 _1499_
*1355 _649_
*1356 _1500_
*1357 _1526_
*1358 _1543_
*1359 _1501_
*1360 _652_
*1361 _1503_
*1362 _1550_
*1363 _1504_
*1364 _1506_
*1365 \nibble_mayor_nibble_B\[0]
*1366 _1609_
*1367 _1563_
*1368 _1525_
*1369 _1507_
*1370 \nibble_mayor_nibble_A\[0]
*1371 _1605_
*1372 _1524_
*1373 _1562_
*1374 _1508_
*1375 _658_
*1376 _1509_
*1377 _1511_
*1378 _1514_
*1379 _1515_
*1380 _669_
*1381 _1520_
*1382 _1549_
*1383 _1521_
*1384 _1523_
*1385 _679_
*1386 _1530_
*1387 _1574_
*1388 _1541_
*1389 _1576_
*1390 _693_
*1391 _1544_
*1392 _1573_
*1393 _1547_
*1394 _1600_
*1395 _697_
*1396 _1548_
*1397 _1590_
*1398 _1572_
*1399 _1587_
*1400 _706_
*1401 _1557_
*1402 _1580_
*1403 _1579_
*1404 _1560_
*1405 _721_
*1406 _1572_
*1407 _1599_
*1408 _1596_
*1409 _1592_
*1410 _732_
*1411 _1583_
*1412 _1599_
*1413 _1596_
*1414 _1592_
*1415 _733_
*1416 _1584_
*1417 _1594_
*1418 _1586_
*1419 _1585_
*1420 _747_
*1421 _1467_
*1422 _1469_
*1423 _1481_
*1424 _748_
*1425 _1468_
*1426 _1469_
*1427 _1536_
*1428 _752_
*1429 _1472_
*1430 _1533_
*1431 _1473_
*1432 _758_
*1433 _1478_
*1434 _1479_
*1435 _1535_
*1436 _762_
*1437 _1482_
*1438 _1486_
*1439 _1533_
*1440 _763_
*1441 _1483_
*1442 _1533_
*1443 _1486_
*1444 _764_
*1445 _1484_
*1446 _1485_
*1447 _1540_
*1448 _766_
*1449 _1486_
*1450 _1536_
*1451 _1487_
*1452 _771_
*1453 _1491_
*1454 _1569_
*1455 _1492_
*1456 _773_
*1457 _1493_
*1458 _1494_
*1459 _1537_
*1460 _639_[3]
*1461 _1497_
*1462 _1498_
*1463 _1604_
*1464 _648_
*1465 _1499_
*1466 _1589_
*1467 _1548_
*1468 _651_
*1469 _1502_
*1470 _1526_
*1471 _1504_
*1472 _663_
*1473 _1514_
*1474 _1522_
*1475 _1517_
*1476 _673_
*1477 _1524_
*1478 _1567_
*1479 _1525_
*1480 _688_
*1481 _1539_
*1482 _1541_
*1483 _1573_
*1484 _689_
*1485 _1540_
*1486 _1541_
*1487 _1573_
*1488 _700_
*1489 _1551_
*1490 _1554_
*1491 _1597_
*1492 _703_
*1493 _1554_
*1494 _1571_
*1495 _1585_
*1496 _709_
*1497 _1560_
*1498 _1571_
*1499 _1585_
*1500 _712_
*1501 _1563_
*1502 _1567_
*1503 _1566_
*1504 _713_
*1505 _1564_
*1506 _1581_
*1507 _1566_
*1508 _714_
*1509 _1565_
*1510 _1581_
*1511 _1566_
*1512 _718_
*1513 _1569_
*1514 _1570_
*1515 _1584_
*1516 _722_
*1517 _1573_
*1518 _1575_
*1519 _1589_
*1520 _726_
*1521 _1577_
*1522 _1588_
*1523 _1578_
*1524 _728_
*1525 _1579_
*1526 _1590_
*1527 _1582_
*1528 _739_
*1529 _1590_
*1530 _1591_
*1531 _1593_
*1532 _638_[1]
*1533 _1591_
*1534 _1600_
*1535 _1597_
*1536 _183_
*1537 _997_
*1538 _1000_
*1539 _185_
*1540 _999_
*1541 _1000_
*1542 _186_
*1543 _1000_
*1544 _1005_
*1545 _187_
*1546 _1001_
*1547 _1002_
*1548 _188_
*1549 _1002_
*1550 _1004_
*1551 _189_
*1552 _1003_
*1553 _1004_
*1554 _190_
*1555 _1004_
*1556 _1005_
*1557 _191_
*1558 _1005_
*1559 _1015_
*1560 _192_
*1561 _1006_
*1562 _1009_
*1563 _193_
*1564 _1007_
*1565 _1008_
*1566 _194_
*1567 _1008_
*1568 _1009_
*1569 _195_
*1570 _1009_
*1571 _1014_
*1572 _196_
*1573 _1010_
*1574 _1012_
*1575 _197_
*1576 _1011_
*1577 _1012_
*1578 _198_
*1579 _1012_
*1580 _1013_
*1581 _199_
*1582 _1013_
*1583 _1014_
*1584 _200_
*1585 _1014_
*1586 _1015_
*1587 _201_
*1588 _1015_
*1589 _1035_
*1590 _202_
*1591 _1016_
*1592 _1019_
*1593 _203_
*1594 _1017_
*1595 _1018_
*1596 _204_
*1597 _1018_
*1598 _1019_
*1599 _205_
*1600 _1019_
*1601 _1024_
*1602 _206_
*1603 _1020_
*1604 _1021_
*1605 _207_
*1606 _1021_
*1607 _1023_
*1608 _208_
*1609 _1022_
*1610 _1023_
*1611 _209_
*1612 _1023_
*1613 _1024_
*1614 _210_
*1615 _1024_
*1616 _1034_
*1617 _211_
*1618 _1025_
*1619 _1028_
*1620 _212_
*1621 _1026_
*1622 _1027_
*1623 _213_
*1624 _1027_
*1625 _1028_
*1626 _214_
*1627 _1028_
*1628 _1033_
*1629 _215_
*1630 _1029_
*1631 _1031_
*1632 _216_
*1633 _1030_
*1634 _1031_
*1635 _217_
*1636 _1031_
*1637 _1032_
*1638 _218_
*1639 _1032_
*1640 _1033_
*1641 _219_
*1642 _1033_
*1643 _1034_
*1644 _220_
*1645 _1034_
*1646 _1035_
*1647 _161_[3]
*1648 _1035_
*1649 _1117_
*1650 _221_
*1651 _1036_
*1652 _1039_
*1653 _222_
*1654 _1037_
*1655 _1038_
*1656 _223_
*1657 _1038_
*1658 _1039_
*1659 _224_
*1660 _1039_
*1661 _1044_
*1662 _225_
*1663 _1040_
*1664 _1041_
*1665 _226_
*1666 _1041_
*1667 _1043_
*1668 _227_
*1669 _1042_
*1670 _1043_
*1671 _228_
*1672 _1043_
*1673 _1044_
*1674 _229_
*1675 _1044_
*1676 _1054_
*1677 _230_
*1678 _1045_
*1679 _1048_
*1680 _231_
*1681 _1046_
*1682 _1047_
*1683 _232_
*1684 _1047_
*1685 _1048_
*1686 _233_
*1687 _1048_
*1688 _1053_
*1689 _234_
*1690 _1049_
*1691 _1051_
*1692 _235_
*1693 _1050_
*1694 _1051_
*1695 _236_
*1696 _1051_
*1697 _1052_
*1698 _237_
*1699 _1052_
*1700 _1053_
*1701 _238_
*1702 _1053_
*1703 _1054_
*1704 _239_
*1705 _1054_
*1706 _1074_
*1707 _240_
*1708 _1055_
*1709 _1058_
*1710 _241_
*1711 _1056_
*1712 _1057_
*1713 _242_
*1714 _1057_
*1715 _1058_
*1716 _243_
*1717 _1058_
*1718 _1063_
*1719 _244_
*1720 _1059_
*1721 _1060_
*1722 _245_
*1723 _1060_
*1724 _1062_
*1725 _246_
*1726 _1061_
*1727 _1062_
*1728 _247_
*1729 _1062_
*1730 _1063_
*1731 _248_
*1732 _1063_
*1733 _1073_
*1734 _249_
*1735 _1064_
*1736 _1067_
*1737 _250_
*1738 _1065_
*1739 _1066_
*1740 _251_
*1741 _1066_
*1742 _1067_
*1743 _252_
*1744 _1067_
*1745 _1072_
*1746 _253_
*1747 _1068_
*1748 _1070_
*1749 _254_
*1750 _1069_
*1751 _1070_
*1752 _255_
*1753 _1070_
*1754 _1071_
*1755 _256_
*1756 _1071_
*1757 _1072_
*1758 _257_
*1759 _1072_
*1760 _1073_
*1761 _258_
*1762 _1073_
*1763 _1074_
*1764 _161_[0]
*1765 _1074_
*1766 _1114_
*1767 _259_
*1768 _1075_
*1769 _1078_
*1770 _260_
*1771 _1076_
*1772 _1077_
*1773 _261_
*1774 _1077_
*1775 _1078_
*1776 _262_
*1777 _1078_
*1778 _1083_
*1779 _263_
*1780 _1079_
*1781 _1080_
*1782 _264_
*1783 _1080_
*1784 _1082_
*1785 _265_
*1786 _1081_
*1787 _1082_
*1788 _266_
*1789 _1082_
*1790 _1083_
*1791 _267_
*1792 _1083_
*1793 _1093_
*1794 _268_
*1795 _1084_
*1796 _1087_
*1797 _269_
*1798 _1085_
*1799 _1086_
*1800 _270_
*1801 _1086_
*1802 _1087_
*1803 _271_
*1804 _1087_
*1805 _1092_
*1806 _272_
*1807 _1088_
*1808 _1090_
*1809 _273_
*1810 _1089_
*1811 _1090_
*1812 _274_
*1813 _1090_
*1814 _1091_
*1815 _275_
*1816 _1091_
*1817 _1092_
*1818 _276_
*1819 _1092_
*1820 _1093_
*1821 _277_
*1822 _1093_
*1823 _1113_
*1824 _278_
*1825 _1094_
*1826 _1097_
*1827 _279_
*1828 _1095_
*1829 _1096_
*1830 _280_
*1831 _1096_
*1832 _1097_
*1833 _281_
*1834 _1097_
*1835 _1102_
*1836 _282_
*1837 _1098_
*1838 _1099_
*1839 _283_
*1840 _1099_
*1841 _1101_
*1842 _284_
*1843 _1100_
*1844 _1101_
*1845 _285_
*1846 _1101_
*1847 _1102_
*1848 _286_
*1849 _1102_
*1850 _1112_
*1851 _287_
*1852 _1103_
*1853 _1106_
*1854 _288_
*1855 _1104_
*1856 _1105_
*1857 _289_
*1858 _1105_
*1859 _1106_
*1860 _290_
*1861 _1106_
*1862 _1111_
*1863 _291_
*1864 _1107_
*1865 _1109_
*1866 _292_
*1867 _1108_
*1868 _1109_
*1869 _293_
*1870 _1109_
*1871 _1110_
*1872 _294_
*1873 _1110_
*1874 _1111_
*1875 _295_
*1876 _1111_
*1877 _1112_
*1878 _296_
*1879 _1112_
*1880 _1113_
*1881 _161_[1]
*1882 _1113_
*1883 _1115_
*1884 NIBBLES[4]
*1885 _1114_
*1886 _1458_
*1887 NIBBLES[5]
*1888 _1115_
*1889 _1459_
*1890 _161_[2]
*1891 _996_
*1892 _1116_
*1893 NIBBLES[6]
*1894 _1116_
*1895 _1460_
*1896 NIBBLES[7]
*1897 _1117_
*1898 _1461_
*1899 _460_
*1900 _1122_
*1901 _1125_
*1902 _461_
*1903 _1123_
*1904 _1124_
*1905 _462_
*1906 _1124_
*1907 _1125_
*1908 _463_
*1909 _1125_
*1910 _1130_
*1911 _464_
*1912 _1126_
*1913 _1127_
*1914 _465_
*1915 _1127_
*1916 _1129_
*1917 _466_
*1918 _1128_
*1919 _1129_
*1920 _467_
*1921 _1129_
*1922 _1130_
*1923 _468_
*1924 _1130_
*1925 _1140_
*1926 _469_
*1927 _1131_
*1928 _1134_
*1929 _470_
*1930 _1132_
*1931 _1133_
*1932 _471_
*1933 _1133_
*1934 _1134_
*1935 _472_
*1936 _1134_
*1937 _1139_
*1938 _473_
*1939 _1135_
*1940 _1137_
*1941 _474_
*1942 _1136_
*1943 _1137_
*1944 _475_
*1945 _1137_
*1946 _1138_
*1947 _476_
*1948 _1138_
*1949 _1139_
*1950 _477_
*1951 _1139_
*1952 _1140_
*1953 _478_
*1954 _1140_
*1955 _1162_
*1956 _323_
*1957 _1143_
*1958 _1146_
*1959 _324_
*1960 _1144_
*1961 _1145_
*1962 _325_
*1963 _1145_
*1964 _1146_
*1965 _326_
*1966 _1146_
*1967 _1151_
*1968 _327_
*1969 _1147_
*1970 _1148_
*1971 _328_
*1972 _1148_
*1973 _1150_
*1974 _329_
*1975 _1149_
*1976 _1150_
*1977 _330_
*1978 _1150_
*1979 _1151_
*1980 _331_
*1981 _1151_
*1982 _1161_
*1983 _332_
*1984 _1152_
*1985 _1155_
*1986 _333_
*1987 _1153_
*1988 _1154_
*1989 _334_
*1990 _1154_
*1991 _1155_
*1992 _335_
*1993 _1155_
*1994 _1160_
*1995 _336_
*1996 _1156_
*1997 _1158_
*1998 _337_
*1999 _1157_
*2000 _1158_
*2001 _338_
*2002 _1158_
*2003 _1159_
*2004 _339_
*2005 _1159_
*2006 _1160_
*2007 _340_
*2008 _1160_
*2009 _1161_
*2010 _341_
*2011 _1161_
*2012 _1162_
*2013 _320_[2]
*2014 _1162_
*2015 _1282_
*2016 _342_
*2017 _1163_
*2018 _1166_
*2019 _343_
*2020 _1164_
*2021 _1165_
*2022 _344_
*2023 _1165_
*2024 _1166_
*2025 _345_
*2026 _1166_
*2027 _1171_
*2028 _346_
*2029 _1167_
*2030 _1168_
*2031 _347_
*2032 _1168_
*2033 _1170_
*2034 _348_
*2035 _1169_
*2036 _1170_
*2037 _349_
*2038 _1170_
*2039 _1171_
*2040 _350_
*2041 _1171_
*2042 _1181_
*2043 _351_
*2044 _1172_
*2045 _1175_
*2046 _352_
*2047 _1173_
*2048 _1174_
*2049 _353_
*2050 _1174_
*2051 _1175_
*2052 _354_
*2053 _1175_
*2054 _1180_
*2055 _355_
*2056 _1176_
*2057 _1178_
*2058 _356_
*2059 _1177_
*2060 _1178_
*2061 _357_
*2062 _1178_
*2063 _1179_
*2064 _358_
*2065 _1179_
*2066 _1180_
*2067 _359_
*2068 _1180_
*2069 _1181_
*2070 _360_
*2071 _1181_
*2072 _1201_
*2073 _361_
*2074 _1182_
*2075 _1185_
*2076 _362_
*2077 _1183_
*2078 _1184_
*2079 _363_
*2080 _1184_
*2081 _1185_
*2082 _364_
*2083 _1185_
*2084 _1190_
*2085 _365_
*2086 _1186_
*2087 _1187_
*2088 _366_
*2089 _1187_
*2090 _1189_
*2091 _367_
*2092 _1188_
*2093 _1189_
*2094 _368_
*2095 _1189_
*2096 _1190_
*2097 _369_
*2098 _1190_
*2099 _1200_
*2100 _370_
*2101 _1191_
*2102 _1194_
*2103 _371_
*2104 _1192_
*2105 _1193_
*2106 _372_
*2107 _1193_
*2108 _1194_
*2109 _373_
*2110 _1194_
*2111 _1199_
*2112 _374_
*2113 _1195_
*2114 _1197_
*2115 _375_
*2116 _1196_
*2117 _1197_
*2118 _376_
*2119 _1197_
*2120 _1198_
*2121 _377_
*2122 _1198_
*2123 _1199_
*2124 _378_
*2125 _1199_
*2126 _1200_
*2127 _379_
*2128 _1200_
*2129 _1201_
*2130 _320_[3]
*2131 _1201_
*2132 _1283_
*2133 _380_
*2134 _1202_
*2135 _1205_
*2136 _381_
*2137 _1203_
*2138 _1204_
*2139 _382_
*2140 _1204_
*2141 _1205_
*2142 _383_
*2143 _1205_
*2144 _1210_
*2145 _384_
*2146 _1206_
*2147 _1207_
*2148 _385_
*2149 _1207_
*2150 _1209_
*2151 _386_
*2152 _1208_
*2153 _1209_
*2154 _387_
*2155 _1209_
*2156 _1210_
*2157 _388_
*2158 _1210_
*2159 _1220_
*2160 _389_
*2161 _1211_
*2162 _1214_
*2163 _390_
*2164 _1212_
*2165 _1213_
*2166 _391_
*2167 _1213_
*2168 _1214_
*2169 _392_
*2170 _1214_
*2171 _1219_
*2172 _393_
*2173 _1215_
*2174 _1217_
*2175 _394_
*2176 _1216_
*2177 _1217_
*2178 _395_
*2179 _1217_
*2180 _1218_
*2181 _396_
*2182 _1218_
*2183 _1219_
*2184 _397_
*2185 _1219_
*2186 _1220_
*2187 _398_
*2188 _1220_
*2189 _1240_
*2190 _399_
*2191 _1221_
*2192 _1224_
*2193 _400_
*2194 _1222_
*2195 _1223_
*2196 _401_
*2197 _1223_
*2198 _1224_
*2199 _402_
*2200 _1224_
*2201 _1229_
*2202 _403_
*2203 _1225_
*2204 _1226_
*2205 _404_
*2206 _1226_
*2207 _1228_
*2208 _405_
*2209 _1227_
*2210 _1228_
*2211 _406_
*2212 _1228_
*2213 _1229_
*2214 _407_
*2215 _1229_
*2216 _1239_
*2217 _408_
*2218 _1230_
*2219 _1233_
*2220 _409_
*2221 _1231_
*2222 _1232_
*2223 _410_
*2224 _1232_
*2225 _1233_
*2226 _411_
*2227 _1233_
*2228 _1238_
*2229 _412_
*2230 _1234_
*2231 _1236_
*2232 _413_
*2233 _1235_
*2234 _1236_
*2235 _414_
*2236 _1236_
*2237 _1237_
*2238 _415_
*2239 _1237_
*2240 _1238_
*2241 _416_
*2242 _1238_
*2243 _1239_
*2244 _417_
*2245 _1239_
*2246 _1240_
*2247 _320_[0]
*2248 _1240_
*2249 _1280_
*2250 _418_
*2251 _1241_
*2252 _1244_
*2253 _419_
*2254 _1242_
*2255 _1243_
*2256 _420_
*2257 _1243_
*2258 _1244_
*2259 _421_
*2260 _1244_
*2261 _1249_
*2262 _422_
*2263 _1245_
*2264 _1246_
*2265 _423_
*2266 _1246_
*2267 _1248_
*2268 _424_
*2269 _1247_
*2270 _1248_