*SPICE netlist created from verilog structural netlist module nibble_top by vlog2Spice (qflow)
*This file may contain array delimiters, not for use in simulation.

** Start of included library /usr/local/share/qflow/tech/osu018/osu018_stdcells.sp

.subckt AND2X1 Y B vdd gnd A
M0 a_2_6# A vdd vdd pfet w=2u l=0.2u
+ ad=0p pd=0u as=0p ps=0u 
M1 vdd B a_2_6# vdd pfet w=2u l=0.2u
+ ad=0p pd=0u as=0p ps=0u 
M2 Y a_2_6# vdd vdd pfet w=2u l=0.2u
+ ad=0p pd=0u as=0p ps=0u 
M3 a_9_6# A a_2_6# Gnd nfet w=2u l=0.2u
+ ad=0p pd=0u as=0p ps=0u 
M4 gnd B a_9_6# Gnd nfet w=2u l=0.2u
+ ad=0p pd=0u as=0p ps=0u 
M5 Y a_2_6# gnd Gnd nfet w=1u l=0.2u
+ ad=0p pd=0u as=0p ps=0u 
.ends AND2X1

.subckt AND2X2 vdd gnd A B Y
M0 a_2_6# A vdd vdd pfet w=2u l=0.2u
+ ad=0p pd=0u as=0p ps=0u 
M1 vdd B a_2_6# vdd pfet w=2u l=0.2u
+ ad=0p pd=0u as=0p ps=0u 
M2 Y a_2_6# vdd vdd pfet w=4u l=0.2u
+ ad=0p pd=0u as=0p ps=0u 
M3 a_9_6# A a_2_6# Gnd nfet w=2u l=0.2u
+ ad=0p pd=0u as=0p ps=0u 
M4 gnd B a_9_6# Gnd nfet w=2u l=0.2u
+ ad=0p pd=0u as=0p ps=0u 
M5 Y a_2_6# gnd Gnd nfet w=2u l=0.2u
+ ad=0p pd=0u as=0p ps=0u 
.ends AND2X2

.subckt AOI21X1 gnd vdd A B Y C
M0 vdd A a_2_54# vdd pfet w=4u l=0.2u
+ ad=0p pd=0u as=0p ps=0u 
M1 a_2_54# B vdd vdd pfet w=4u l=0.2u
+ ad=0p pd=0u as=0p ps=0u 
M2 Y C a_2_54# vdd pfet w=4u l=0.2u
+ ad=0p pd=0u as=0p ps=0u 
M3 a_12_6# A gnd Gnd nfet w=2u l=0.2u
+ ad=0p pd=0u as=0p ps=0u 
M4 Y B a_12_6# Gnd nfet w=2u l=0.2u
+ ad=0p pd=0u as=0p ps=0u 
M5 gnd C Y Gnd nfet w=1u l=0.2u
+ ad=0p pd=0u as=0p ps=0u 
.ends AOI21X1

.subckt AOI22X1 gnd vdd C D Y A B
M0 vdd A a_2_54# vdd pfet w=4u l=0.2u
+ ad=0p pd=0u as=0p ps=0u 
M1 a_2_54# B vdd vdd pfet w=4u l=0.2u
+ ad=0p pd=0u as=0p ps=0u 
M2 Y D a_2_54# vdd pfet w=4u l=0.2u
+ ad=0p pd=0u as=0p ps=0u 
M3 a_2_54# C Y vdd pfet w=4u l=0.2u
+ ad=0p pd=0u as=0p ps=0u 
M4 a_11_6# A gnd Gnd nfet w=2u l=0.2u
+ ad=0p pd=0u as=0p ps=0u 
M5 Y B a_11_6# Gnd nfet w=2u l=0.2u
+ ad=0p pd=0u as=0p ps=0u 
M6 a_28_6# D Y Gnd nfet w=2u l=0.2u
+ ad=0p pd=0u as=0p ps=0u 
M7 gnd C a_28_6# Gnd nfet w=2u l=0.2u
+ ad=0p pd=0u as=0p ps=0u 
.ends AOI22X1

.subckt BUFX2 vdd gnd A Y
M0 vdd A a_2_6# vdd pfet w=2u l=0.2u
+ ad=0p pd=0u as=0p ps=0u 
M1 Y a_2_6# vdd vdd pfet w=4u l=0.2u
+ ad=0p pd=0u as=0p ps=0u 
M2 gnd A a_2_6# Gnd nfet w=1u l=0.2u
+ ad=0p pd=0u as=0p ps=0u 
M3 Y a_2_6# gnd Gnd nfet w=2u l=0.2u
+ ad=0p pd=0u as=0p ps=0u 
.ends BUFX2

.subckt BUFX4 vdd gnd A Y
M0 vdd A a_2_6# vdd pfet w=3u l=0.2u
+ ad=0p pd=0u as=0p ps=0u 
M1 Y a_2_6# vdd vdd pfet w=4u l=0.2u
+ ad=0p pd=0u as=0p ps=0u 
M2 vdd a_2_6# Y vdd pfet w=4u l=0.2u
+ ad=0p pd=0u as=0p ps=0u 
M3 gnd A a_2_6# Gnd nfet w=1.5u l=0.2u
+ ad=0p pd=0u as=0p ps=0u 
M4 Y a_2_6# gnd Gnd nfet w=2u l=0.2u
+ ad=0p pd=0u as=0p ps=0u 
M5 gnd a_2_6# Y Gnd nfet w=2u l=0.2u
+ ad=0p pd=0u as=0p ps=0u 
.ends BUFX4

.subckt CLKBUF1 A vdd gnd Y
M0 a_9_6# A vdd vdd pfet w=4u l=0.2u
+ ad=0p pd=0u as=0p ps=0u 
M1 vdd A a_9_6# vdd pfet w=4u l=0.2u
+ ad=0p pd=0u as=0p ps=0u 
M2 a_25_6# a_9_6# vdd vdd pfet w=4u l=0.2u
+ ad=0p pd=0u as=0p ps=0u 
M3 vdd a_9_6# a_25_6# vdd pfet w=4u l=0.2u
+ ad=0p pd=0u as=0p ps=0u 
M4 a_41_6# a_25_6# vdd vdd pfet w=4u l=0.2u
+ ad=0p pd=0u as=0p ps=0u 
M5 vdd a_25_6# a_41_6# vdd pfet w=4u l=0.2u
+ ad=0p pd=0u as=0p ps=0u 
M6 Y a_41_6# vdd vdd pfet w=4u l=0.2u
+ ad=0p pd=0u as=0p ps=0u 
M7 vdd a_41_6# Y vdd pfet w=4u l=0.2u
+ ad=0p pd=0u as=0p ps=0u 
M8 a_9_6# A gnd Gnd nfet w=2u l=0.2u
+ ad=0p pd=0u as=0p ps=0u 
M9 gnd A a_9_6# Gnd nfet w=2u l=0.2u
+ ad=0p pd=0u as=0p ps=0u 
M10 a_25_6# a_9_6# gnd Gnd nfet w=2u l=0.2u
+ ad=0p pd=0u as=0p ps=0u 
M11 gnd a_9_6# a_25_6# Gnd nfet w=2u l=0.2u
+ ad=0p pd=0u as=0p ps=0u 
M12 a_41_6# a_25_6# gnd Gnd nfet w=2u l=0.2u
+ ad=0p pd=0u as=0p ps=0u 
M13 gnd a_25_6# a_41_6# Gnd nfet w=2u l=0.2u
+ ad=0p pd=0u as=0p ps=0u 
M14 Y a_41_6# gnd Gnd nfet w=2u l=0.2u
+ ad=0p pd=0u as=0p ps=0u 
M15 gnd a_41_6# Y Gnd nfet w=2u l=0.2u
+ ad=0p pd=0u as=0p ps=0u 
.ends CLKBUF1

.subckt CLKBUF2 vdd gnd A Y
M0 a_9_6# A vdd vdd pfet w=4u l=0.2u
+ ad=0p pd=0u as=0p ps=0u 
M1 vdd A a_9_6# vdd pfet w=4u l=0.2u
+ ad=0p pd=0u as=0p ps=0u 
M2 a_25_6# a_9_6# vdd vdd pfet w=4u l=0.2u
+ ad=0p pd=0u as=0p ps=0u 
M3 vdd a_9_6# a_25_6# vdd pfet w=4u l=0.2u
+ ad=0p pd=0u as=0p ps=0u 
M4 a_41_6# a_25_6# vdd vdd pfet w=4u l=0.2u
+ ad=0p pd=0u as=0p ps=0u 
M5 vdd a_25_6# a_41_6# vdd pfet w=4u l=0.2u
+ ad=0p pd=0u as=0p ps=0u 
M6 a_57_6# a_41_6# vdd vdd pfet w=4u l=0.2u
+ ad=0p pd=0u as=0p ps=0u 
M7 vdd a_41_6# a_57_6# vdd pfet w=4u l=0.2u
+ ad=0p pd=0u as=0p ps=0u 
M8 a_73_6# a_57_6# vdd vdd pfet w=4u l=0.2u
+ ad=0p pd=0u as=0p ps=0u 
M9 vdd a_57_6# a_73_6# vdd pfet w=4u l=0.2u
+ ad=0p pd=0u as=0p ps=0u 
M10 Y a_73_6# vdd vdd pfet w=4u l=0.2u
+ ad=0p pd=0u as=0p ps=0u 
M11 vdd a_73_6# Y vdd pfet w=4u l=0.2u
+ ad=0p pd=0u as=0p ps=0u 
M12 a_9_6# A gnd Gnd nfet w=2u l=0.2u
+ ad=0p pd=0u as=0p ps=0u 
M13 gnd A a_9_6# Gnd nfet w=2u l=0.2u
+ ad=0p pd=0u as=0p ps=0u 
M14 a_25_6# a_9_6# gnd Gnd nfet w=2u l=0.2u
+ ad=0p pd=0u as=0p ps=0u 
M15 gnd a_9_6# a_25_6# Gnd nfet w=2u l=0.2u
+ ad=0p pd=0u as=0p ps=0u 
M16 a_41_6# a_25_6# gnd Gnd nfet w=2u l=0.2u
+ ad=0p pd=0u as=0p ps=0u 
M17 gnd a_25_6# a_41_6# Gnd nfet w=2u l=0.2u
+ ad=0p pd=0u as=0p ps=0u 
M18 a_57_6# a_41_6# gnd Gnd nfet w=2u l=0.2u
+ ad=0p pd=0u as=0p ps=0u 
M19 gnd a_41_6# a_57_6# Gnd nfet w=2u l=0.2u
+ ad=0p pd=0u as=0p ps=0u 
M20 a_73_6# a_57_6# gnd Gnd nfet w=2u l=0.2u
+ ad=0p pd=0u as=0p ps=0u 
M21 gnd a_57_6# a_73_6# Gnd nfet w=2u l=0.2u
+ ad=0p pd=0u as=0p ps=0u 
M22 Y a_73_6# gnd Gnd nfet w=2u l=0.2u
+ ad=0p pd=0u as=0p ps=0u 
M23 gnd a_73_6# Y Gnd nfet w=2u l=0.2u
+ ad=0p pd=0u as=0p ps=0u 
.ends CLKBUF2

.subckt CLKBUF3 gnd vdd A Y
M0 a_9_6# A vdd vdd pfet w=4u l=0.2u
+ ad=0p pd=0u as=0p ps=0u 
M1 vdd A a_9_6# vdd pfet w=4u l=0.2u
+ ad=0p pd=0u as=0p ps=0u 
M2 a_25_6# a_9_6# vdd vdd pfet w=4u l=0.2u
+ ad=0p pd=0u as=0p ps=0u 
M3 vdd a_9_6# a_25_6# vdd pfet w=4u l=0.2u
+ ad=0p pd=0u as=0p ps=0u 
M4 a_41_6# a_25_6# vdd vdd pfet w=4u l=0.2u
+ ad=0p pd=0u as=0p ps=0u 
M5 vdd a_25_6# a_41_6# vdd pfet w=4u l=0.2u
+ ad=0p pd=0u as=0p ps=0u 
M6 a_57_6# a_41_6# vdd vdd pfet w=4u l=0.2u
+ ad=0p pd=0u as=0p ps=0u 
M7 vdd a_41_6# a_57_6# vdd pfet w=4u l=0.2u
+ ad=0p pd=0u as=0p ps=0u 
M8 a_73_6# a_57_6# vdd vdd pfet w=4u l=0.2u
+ ad=0p pd=0u as=0p ps=0u 
M9 vdd a_57_6# a_73_6# vdd pfet w=4u l=0.2u
+ ad=0p pd=0u as=0p ps=0u 
M10 a_89_6# a_73_6# vdd vdd pfet w=4u l=0.2u
+ ad=0p pd=0u as=0p ps=0u 
M11 vdd a_73_6# a_89_6# vdd pfet w=4u l=0.2u
+ ad=0p pd=0u as=0p ps=0u 
M12 a_105_6# a_89_6# vdd vdd pfet w=4u l=0.2u
+ ad=0p pd=0u as=0p ps=0u 
M13 vdd a_89_6# a_105_6# vdd pfet w=4u l=0.2u
+ ad=0p pd=0u as=0p ps=0u 
M14 Y a_105_6# vdd vdd pfet w=4u l=0.2u
+ ad=0p pd=0u as=0p ps=0u 
M15 vdd a_105_6# Y vdd pfet w=4u l=0.2u
+ ad=0p pd=0u as=0p ps=0u 
M16 a_9_6# A gnd Gnd nfet w=2u l=0.2u
+ ad=0p pd=0u as=0p ps=0u 
M17 gnd A a_9_6# Gnd nfet w=2u l=0.2u
+ ad=0p pd=0u as=0p ps=0u 
M18 a_25_6# a_9_6# gnd Gnd nfet w=2u l=0.2u
+ ad=0p pd=0u as=0p ps=0u 
M19 gnd a_9_6# a_25_6# Gnd nfet w=2u l=0.2u
+ ad=0p pd=0u as=0p ps=0u 
M20 a_41_6# a_25_6# gnd Gnd nfet w=2u l=0.2u
+ ad=0p pd=0u as=0p ps=0u 
M21 gnd a_25_6# a_41_6# Gnd nfet w=2u l=0.2u
+ ad=0p pd=0u as=0p ps=0u 
M22 a_57_6# a_41_6# gnd Gnd nfet w=2u l=0.2u
+ ad=0p pd=0u as=0p ps=0u 
M23 gnd a_41_6# a_57_6# Gnd nfet w=2u l=0.2u
+ ad=0p pd=0u as=0p ps=0u 
M24 a_73_6# a_57_6# gnd Gnd nfet w=2u l=0.2u
+ ad=0p pd=0u as=0p ps=0u 
M25 gnd a_57_6# a_73_6# Gnd nfet w=2u l=0.2u
+ ad=0p pd=0u as=0p ps=0u 
M26 a_89_6# a_73_6# gnd Gnd nfet w=2u l=0.2u
+ ad=0p pd=0u as=0p ps=0u 
M27 gnd a_73_6# a_89_6# Gnd nfet w=2u l=0.2u
+ ad=0p pd=0u as=0p ps=0u 
M28 a_105_6# a_89_6# gnd Gnd nfet w=2u l=0.2u
+ ad=0p pd=0u as=0p ps=0u 
M29 gnd a_89_6# a_105_6# Gnd nfet w=2u l=0.2u
+ ad=0p pd=0u as=0p ps=0u 
M30 Y a_105_6# gnd Gnd nfet w=2u l=0.2u
+ ad=0p pd=0u as=0p ps=0u 
M31 gnd a_105_6# Y Gnd nfet w=2u l=0.2u
+ ad=0p pd=0u as=0p ps=0u 
.ends CLKBUF3

.subckt DFFNEGX1 CLK vdd D gnd Q
M0 vdd CLK a_2_6# vdd pfet w=4u l=0.2u
+ ad=0p pd=0u as=0p ps=0u 
M1 a_17_74# D vdd vdd pfet w=2u l=0.2u
+ ad=0p pd=0u as=0p ps=0u 
M2 a_23_6# a_2_6# a_17_74# vdd pfet w=2u l=0.2u
+ ad=0p pd=0u as=0p ps=0u 
M3 a_31_74# CLK a_23_6# vdd pfet w=2u l=0.2u
+ ad=0p pd=0u as=0p ps=0u 
M4 vdd a_34_4# a_31_74# vdd pfet w=2u l=0.2u
+ ad=0p pd=0u as=0p ps=0u 
M5 a_34_4# a_23_6# vdd vdd pfet w=2u l=0.2u
+ ad=0p pd=0u as=0p ps=0u 
M6 a_61_74# a_34_4# vdd vdd pfet w=2u l=0.2u
+ ad=0p pd=0u as=0p ps=0u 
M7 a_66_6# CLK a_61_74# vdd pfet w=2u l=0.2u
+ ad=0p pd=0u as=0p ps=0u 
M8 a_76_84# a_2_6# a_66_6# vdd pfet w=1u l=0.2u
+ ad=0p pd=0u as=0p ps=0u 
M9 vdd Q a_76_84# vdd pfet w=1u l=0.2u
+ ad=0p pd=0u as=0p ps=0u 
M10 gnd CLK a_2_6# Gnd nfet w=2u l=0.2u
+ ad=0p pd=0u as=0p ps=0u 
M11 Q a_66_6# vdd vdd pfet w=4u l=0.2u
+ ad=0p pd=0u as=0p ps=0u 
M12 a_17_6# D gnd Gnd nfet w=1u l=0.2u
+ ad=0p pd=0u as=0p ps=0u 
M13 a_23_6# CLK a_17_6# Gnd nfet w=1u l=0.2u
+ ad=0p pd=0u as=0p ps=0u 
M14 a_31_6# a_2_6# a_23_6# Gnd nfet w=1u l=0.2u
+ ad=0p pd=0u as=0p ps=0u 
M15 gnd a_34_4# a_31_6# Gnd nfet w=1u l=0.2u
+ ad=0p pd=0u as=0p ps=0u 
M16 a_34_4# a_23_6# gnd Gnd nfet w=1u l=0.2u
+ ad=0p pd=0u as=0p ps=0u 
M17 a_61_6# a_34_4# gnd Gnd nfet w=1u l=0.2u
+ ad=0p pd=0u as=0p ps=0u 
M18 a_66_6# a_2_6# a_61_6# Gnd nfet w=1u l=0.2u
+ ad=0p pd=0u as=0p ps=0u 
M19 a_76_6# CLK a_66_6# Gnd nfet w=1u l=0.2u
+ ad=0p pd=0u as=0p ps=0u 
M20 gnd Q a_76_6# Gnd nfet w=1u l=0.2u
+ ad=0p pd=0u as=0p ps=0u 
M21 Q a_66_6# gnd Gnd nfet w=2u l=0.2u
+ ad=0p pd=0u as=0p ps=0u 
.ends DFFNEGX1

.subckt DFFPOSX1 vdd D gnd Q CLK
M0 vdd CLK a_2_6# vdd pfet w=4u l=0.2u
+ ad=0p pd=0u as=0p ps=0u 
M1 a_17_74# D vdd vdd pfet w=2u l=0.2u
+ ad=0p pd=0u as=0p ps=0u 
M2 a_22_6# CLK a_17_74# vdd pfet w=2u l=0.2u
+ ad=0p pd=0u as=0p ps=0u 
M3 a_31_74# a_2_6# a_22_6# vdd pfet w=2u l=0.2u
+ ad=0p pd=0u as=0p ps=0u 
M4 vdd a_34_4# a_31_74# vdd pfet w=2u l=0.2u
+ ad=0p pd=0u as=0p ps=0u 
M5 a_34_4# a_22_6# vdd vdd pfet w=2u l=0.2u
+ ad=0p pd=0u as=0p ps=0u 
M6 a_61_74# a_34_4# vdd vdd pfet w=2u l=0.2u
+ ad=0p pd=0u as=0p ps=0u 
M7 a_66_6# a_2_6# a_61_74# vdd pfet w=2u l=0.2u
+ ad=0p pd=0u as=0p ps=0u 
M8 a_76_84# CLK a_66_6# vdd pfet w=1u l=0.2u
+ ad=0p pd=0u as=0p ps=0u 
M9 vdd Q a_76_84# vdd pfet w=1u l=0.2u
+ ad=0p pd=0u as=0p ps=0u 
M10 gnd CLK a_2_6# Gnd nfet w=2u l=0.2u
+ ad=0p pd=0u as=0p ps=0u 
M11 Q a_66_6# vdd vdd pfet w=4u l=0.2u
+ ad=0p pd=0u as=0p ps=0u 
M12 a_17_6# D gnd Gnd nfet w=1u l=0.2u
+ ad=0p pd=0u as=0p ps=0u 
M13 a_22_6# a_2_6# a_17_6# Gnd nfet w=1u l=0.2u
+ ad=0p pd=0u as=0p ps=0u 
M14 a_31_6# CLK a_22_6# Gnd nfet w=1u l=0.2u
+ ad=0p pd=0u as=0p ps=0u 
M15 gnd a_34_4# a_31_6# Gnd nfet w=1u l=0.2u
+ ad=0p pd=0u as=0p ps=0u 
M16 a_34_4# a_22_6# gnd Gnd nfet w=1u l=0.2u
+ ad=0p pd=0u as=0p ps=0u 
M17 a_61_6# a_34_4# gnd Gnd nfet w=1u l=0.2u
+ ad=0p pd=0u as=0p ps=0u 
M18 a_66_6# CLK a_61_6# Gnd nfet w=1u l=0.2u
+ ad=0p pd=0u as=0p ps=0u 
M19 a_76_6# a_2_6# a_66_6# Gnd nfet w=1u l=0.2u
+ ad=0p pd=0u as=0p ps=0u 
M20 gnd Q a_76_6# Gnd nfet w=1u l=0.2u
+ ad=0p pd=0u as=0p ps=0u 
M21 Q a_66_6# gnd Gnd nfet w=2u l=0.2u
+ ad=0p pd=0u as=0p ps=0u 
.ends DFFPOSX1

.subckt DFFSR gnd vdd D S R Q CLK
M0 a_2_6# R vdd vdd pfet w=2u l=0.2u
+ ad=0p pd=0u as=0p ps=0u 
M1 vdd a_10_61# a_2_6# vdd pfet w=2u l=0.2u
+ ad=0p pd=0u as=0p ps=0u 
M2 a_10_61# a_23_27# vdd vdd pfet w=2u l=0.2u
+ ad=0p pd=0u as=0p ps=0u 
M3 vdd S a_10_61# vdd pfet w=2u l=0.2u
+ ad=0p pd=0u as=0p ps=0u 
M4 a_23_27# a_47_71# a_2_6# vdd pfet w=1u l=0.2u
+ ad=0p pd=0u as=0p ps=0u 
M5 a_57_6# a_47_4# a_23_27# vdd pfet w=1u l=0.2u
+ ad=0p pd=0u as=0p ps=0u 
M6 vdd D a_57_6# vdd pfet w=2u l=0.2u
+ ad=0p pd=0u as=0p ps=0u 
M7 vdd a_47_71# a_47_4# vdd pfet w=2u l=0.2u
+ ad=0p pd=0u as=0p ps=0u 
M8 a_47_71# CLK vdd vdd pfet w=2u l=0.2u
+ ad=0p pd=0u as=0p ps=0u 
M9 a_105_6# a_47_71# a_10_61# vdd pfet w=1u l=0.2u
+ ad=0p pd=0u as=0p ps=0u 
M10 a_113_6# a_47_4# a_105_6# vdd pfet w=1u l=0.2u
+ ad=0p pd=0u as=0p ps=0u 
M11 a_122_6# a_105_6# vdd vdd pfet w=2u l=0.2u
+ ad=0p pd=0u as=0p ps=0u 
M12 vdd R a_122_6# vdd pfet w=2u l=0.2u
+ ad=0p pd=0u as=0p ps=0u 
M13 a_113_6# a_122_6# vdd vdd pfet w=2u l=0.2u
+ ad=0p pd=0u as=0p ps=0u 
M14 vdd S a_113_6# vdd pfet w=2u l=0.2u
+ ad=0p pd=0u as=0p ps=0u 
M15 vdd a_122_6# Q vdd pfet w=2u l=0.2u
+ ad=0p pd=0u as=0p ps=0u 
M16 a_10_6# R a_2_6# Gnd nfet w=2u l=0.2u
+ ad=0p pd=0u as=0p ps=0u 
M17 gnd a_10_61# a_10_6# Gnd nfet w=2u l=0.2u
+ ad=0p pd=0u as=0p ps=0u 
M18 a_26_6# a_23_27# gnd Gnd nfet w=2u l=0.2u
+ ad=0p pd=0u as=0p ps=0u 
M19 a_10_61# S a_26_6# Gnd nfet w=2u l=0.2u
+ ad=0p pd=0u as=0p ps=0u 
M20 a_23_27# a_47_4# a_2_6# Gnd nfet w=1u l=0.2u
+ ad=0p pd=0u as=0p ps=0u 
M21 a_57_6# a_47_71# a_23_27# Gnd nfet w=1u l=0.2u
+ ad=0p pd=0u as=0p ps=0u 
M22 gnd D a_57_6# Gnd nfet w=1u l=0.2u
+ ad=0p pd=0u as=0p ps=0u 
M23 gnd a_47_71# a_47_4# Gnd nfet w=1u l=0.2u
+ ad=0p pd=0u as=0p ps=0u 
M24 a_47_71# CLK gnd Gnd nfet w=1u l=0.2u
+ ad=0p pd=0u as=0p ps=0u 
M25 a_105_6# a_47_4# a_10_61# Gnd nfet w=1u l=0.2u
+ ad=0p pd=0u as=0p ps=0u 
M26 a_113_6# a_47_71# a_105_6# Gnd nfet w=1u l=0.2u
+ ad=0p pd=0u as=0p ps=0u 
M27 a_130_6# a_105_6# a_122_6# Gnd nfet w=2u l=0.2u
+ ad=0p pd=0u as=0p ps=0u 
M28 gnd R a_130_6# Gnd nfet w=2u l=0.2u
+ ad=0p pd=0u as=0p ps=0u 
M29 a_146_6# a_122_6# gnd Gnd nfet w=2u l=0.2u
+ ad=0p pd=0u as=0p ps=0u 
M30 a_113_6# S a_146_6# Gnd nfet w=2u l=0.2u
+ ad=0p pd=0u as=0p ps=0u 
M31 gnd a_122_6# Q Gnd nfet w=1u l=0.2u
+ ad=0p pd=0u as=0p ps=0u 
.ends DFFSR

.subckt FAX1 gnd vdd A B C YC YS
M0 vdd A a_2_54# vdd pfet w=4u l=0.2u
+ ad=0p pd=0u as=0p ps=0u 
M1 a_2_54# B vdd vdd pfet w=4u l=0.2u
+ ad=0p pd=0u as=0p ps=0u 
M2 a_25_6# C a_2_54# vdd pfet w=4u l=0.2u
+ ad=0p pd=0u as=0p ps=0u 
M3 a_33_54# B a_25_6# vdd pfet w=4u l=0.2u
+ ad=0p pd=0u as=0p ps=0u 
M4 vdd A a_33_54# vdd pfet w=4u l=0.2u
+ ad=0p pd=0u as=0p ps=0u 
M5 a_46_54# A vdd vdd pfet w=4u l=0.2u
+ ad=0p pd=0u as=0p ps=0u 
M6 vdd B a_46_54# vdd pfet w=3.6u l=0.2u
+ ad=0p pd=0u as=0p ps=0u 
M7 a_46_54# C vdd vdd pfet w=3.6u l=0.2u
+ ad=0p pd=0u as=0p ps=0u 
M8 a_70_6# a_25_6# a_46_54# vdd pfet w=3.6u l=0.2u
+ ad=0p pd=0u as=0p ps=0u 
M9 a_79_46# C a_70_6# vdd pfet w=4.8u l=0.2u
+ ad=0p pd=0u as=0p ps=0u 
M10 a_84_46# B a_79_46# vdd pfet w=4.8u l=0.2u
+ ad=0p pd=0u as=0p ps=0u 
M11 vdd A a_84_46# vdd pfet w=4.8u l=0.2u
+ ad=0p pd=0u as=0p ps=0u 
M12 YS a_70_6# vdd vdd pfet w=2u l=0.2u
+ ad=0p pd=0u as=0p ps=0u 
M13 YC a_25_6# vdd vdd pfet w=2u l=0.2u
+ ad=0p pd=0u as=0p ps=0u 
M14 gnd A a_2_6# Gnd nfet w=2u l=0.2u
+ ad=0p pd=0u as=0p ps=0u 
M15 a_2_6# B gnd Gnd nfet w=2u l=0.2u
+ ad=0p pd=0u as=0p ps=0u 
M16 a_25_6# C a_2_6# Gnd nfet w=2u l=0.2u
+ ad=0p pd=0u as=0p ps=0u 
M17 a_33_6# B a_25_6# Gnd nfet w=2u l=0.2u
+ ad=0p pd=0u as=0p ps=0u 
M18 gnd A a_33_6# Gnd nfet w=2u l=0.2u
+ ad=0p pd=0u as=0p ps=0u 
M19 a_46_6# A gnd Gnd nfet w=2u l=0.2u
+ ad=0p pd=0u as=0p ps=0u 
M20 gnd B a_46_6# Gnd nfet w=2u l=0.2u
+ ad=0p pd=0u as=0p ps=0u 
M21 a_46_6# C gnd Gnd nfet w=2u l=0.2u
+ ad=0p pd=0u as=0p ps=0u 
M22 a_70_6# a_25_6# a_46_6# Gnd nfet w=2u l=0.2u
+ ad=0p pd=0u as=0p ps=0u 
M23 a_79_6# C a_70_6# Gnd nfet w=2u l=0.2u
+ ad=0p pd=0u as=0p ps=0u 
M24 a_84_6# B a_79_6# Gnd nfet w=2u l=0.2u
+ ad=0p pd=0u as=0p ps=0u 
M25 gnd A a_84_6# Gnd nfet w=2u l=0.2u
+ ad=0p pd=0u as=0p ps=0u 
M26 YS a_70_6# gnd Gnd nfet w=1u l=0.2u
+ ad=0p pd=0u as=0p ps=0u 
M27 YC a_25_6# gnd Gnd nfet w=1u l=0.2u
+ ad=0p pd=0u as=0p ps=0u 
.ends FAX1

.subckt FILL vdd gnd
.ends FILL

.subckt HAX1 vdd gnd YC A B YS
M0 vdd A a_2_74# vdd pfet w=2u l=0.2u
+ ad=0p pd=0u as=0p ps=0u 
M1 a_2_74# B vdd vdd pfet w=2u l=0.2u
+ ad=0p pd=0u as=0p ps=0u 
M2 vdd a_2_74# YC vdd pfet w=2u l=0.2u
+ ad=0p pd=0u as=0p ps=0u 
M3 a_41_74# a_2_74# vdd vdd pfet w=2u l=0.2u
+ ad=0p pd=0u as=0p ps=0u 
M4 a_49_54# B a_41_74# vdd pfet w=4u l=0.2u
+ ad=0p pd=0u as=0p ps=0u 
M5 vdd A a_49_54# vdd pfet w=4u l=0.2u
+ ad=0p pd=0u as=0p ps=0u 
M6 YS a_41_74# vdd vdd pfet w=2u l=0.2u
+ ad=0p pd=0u as=0p ps=0u 
M7 a_9_6# A gnd Gnd nfet w=2u l=0.2u
+ ad=0p pd=0u as=0p ps=0u 
M8 a_2_74# B a_9_6# Gnd nfet w=2u l=0.2u
+ ad=0p pd=0u as=0p ps=0u 
M9 gnd a_2_74# YC Gnd nfet w=1u l=0.2u
+ ad=0p pd=0u as=0p ps=0u 
M10 a_38_6# a_2_74# gnd Gnd nfet w=2u l=0.2u
+ ad=0p pd=0u as=0p ps=0u 
M11 a_41_74# B a_38_6# Gnd nfet w=2u l=0.2u
+ ad=0p pd=0u as=0p ps=0u 
M12 a_38_6# A a_41_74# Gnd nfet w=2u l=0.2u
+ ad=0p pd=0u as=0p ps=0u 
M13 YS a_41_74# gnd Gnd nfet w=1u l=0.2u
+ ad=0p pd=0u as=0p ps=0u 
.ends HAX1

.subckt INVX1 A Y vdd gnd
M0 Y A vdd vdd pfet w=2u l=0.2u
+ ad=0p pd=0u as=0p ps=0u 
M1 Y A gnd Gnd nfet w=1u l=0.2u
+ ad=0p pd=0u as=0p ps=0u 
.ends INVX1

.subckt INVX2 vdd gnd Y A
M0 Y A vdd vdd pfet w=4u l=0.2u
+ ad=0p pd=0u as=0p ps=0u 
M1 Y A gnd Gnd nfet w=2u l=0.2u
+ ad=0p pd=0u as=0p ps=0u 
.ends INVX2

.subckt INVX4 vdd gnd Y A
M0 Y A vdd vdd pfet w=4u l=0.2u
+ ad=0p pd=0u as=0p ps=0u 
M1 vdd A Y vdd pfet w=4u l=0.2u
+ ad=0p pd=0u as=0p ps=0u 
M2 Y A gnd Gnd nfet w=2u l=0.2u
+ ad=0p pd=0u as=0p ps=0u 
M3 gnd A Y Gnd nfet w=2u l=0.2u
+ ad=0p pd=0u as=0p ps=0u 
.ends INVX4

.subckt INVX8 vdd gnd A Y
M0 Y A vdd vdd pfet w=4u l=0.2u
+ ad=0p pd=0u as=0p ps=0u 
M1 vdd A Y vdd pfet w=4u l=0.2u
+ ad=0p pd=0u as=0p ps=0u 
M2 Y A vdd vdd pfet w=4u l=0.2u
+ ad=0p pd=0u as=0p ps=0u 
M3 vdd A Y vdd pfet w=4u l=0.2u
+ ad=0p pd=0u as=0p ps=0u 
M4 Y A gnd Gnd nfet w=2u l=0.2u
+ ad=0p pd=0u as=0p ps=0u 
M5 gnd A Y Gnd nfet w=2u l=0.2u
+ ad=0p pd=0u as=0p ps=0u 
M6 Y A gnd Gnd nfet w=2u l=0.2u
+ ad=0p pd=0u as=0p ps=0u 
M7 gnd A Y Gnd nfet w=2u l=0.2u
+ ad=0p pd=0u as=0p ps=0u 
.ends INVX8

.subckt LATCH D Q gnd vdd CLK
M0 vdd CLK a_2_6# vdd pfet w=4u l=0.2u
+ ad=0p pd=0u as=0p ps=0u 
M1 a_18_74# D vdd vdd pfet w=2u l=0.2u
+ ad=0p pd=0u as=0p ps=0u 
M2 a_23_6# a_2_6# a_18_74# vdd pfet w=2u l=0.2u
+ ad=0p pd=0u as=0p ps=0u 
M3 a_35_84# CLK a_23_6# vdd pfet w=1u l=0.2u
+ ad=0p pd=0u as=0p ps=0u 
M4 vdd Q a_35_84# vdd pfet w=1u l=0.2u
+ ad=0p pd=0u as=0p ps=0u 
M5 gnd CLK a_2_6# Gnd nfet w=2u l=0.2u
+ ad=0p pd=0u as=0p ps=0u 
M6 Q a_23_6# vdd vdd pfet w=4u l=0.2u
+ ad=0p pd=0u as=0p ps=0u 
M7 a_18_6# D gnd Gnd nfet w=1u l=0.2u
+ ad=0p pd=0u as=0p ps=0u 
M8 a_23_6# CLK a_18_6# Gnd nfet w=1u l=0.2u
+ ad=0p pd=0u as=0p ps=0u 
M9 a_35_6# a_2_6# a_23_6# Gnd nfet w=1u l=0.2u
+ ad=0p pd=0u as=0p ps=0u 
M10 gnd Q a_35_6# Gnd nfet w=1u l=0.2u
+ ad=0p pd=0u as=0p ps=0u 
M11 Q a_23_6# gnd Gnd nfet w=2u l=0.2u
+ ad=0p pd=0u as=0p ps=0u 
.ends LATCH

.subckt MUX2X1 S vdd gnd Y A B
M0 vdd S a_2_10# vdd pfet w=2u l=0.2u
+ ad=0p pd=0u as=0p ps=0u 
M1 a_17_50# B vdd vdd pfet w=4u l=0.2u
+ ad=0p pd=0u as=0p ps=0u 
M2 Y S a_17_50# vdd pfet w=4u l=0.2u
+ ad=0p pd=0u as=0p ps=0u 
M3 a_30_54# a_2_10# Y vdd pfet w=4u l=0.2u
+ ad=0p pd=0u as=0p ps=0u 
M4 vdd A a_30_54# vdd pfet w=4u l=0.2u
+ ad=0p pd=0u as=0p ps=0u 
M5 gnd S a_2_10# Gnd nfet w=1u l=0.2u
+ ad=0p pd=0u as=0p ps=0u 
M6 a_17_10# B gnd Gnd nfet w=2u l=0.2u
+ ad=0p pd=0u as=0p ps=0u 
M7 Y a_2_10# a_17_10# Gnd nfet w=2u l=0.2u
+ ad=0p pd=0u as=0p ps=0u 
M8 a_30_10# S Y Gnd nfet w=2u l=0.2u
+ ad=0p pd=0u as=0p ps=0u 
M9 gnd A a_30_10# Gnd nfet w=2u l=0.2u
+ ad=0p pd=0u as=0p ps=0u 
.ends MUX2X1

.subckt NAND2X1 vdd Y gnd A B
M0 Y A vdd vdd pfet w=2u l=0.2u
+ ad=0p pd=0u as=0p ps=0u 
M1 vdd B Y vdd pfet w=2u l=0.2u
+ ad=0p pd=0u as=0p ps=0u 
M2 a_9_6# A gnd Gnd nfet w=2u l=0.2u
+ ad=0p pd=0u as=0p ps=0u 
M3 Y B a_9_6# Gnd nfet w=2u l=0.2u
+ ad=0p pd=0u as=0p ps=0u 
.ends NAND2X1

.subckt NAND3X1 B vdd gnd A C Y
M0 Y A vdd vdd pfet w=2u l=0.2u
+ ad=0p pd=0u as=0p ps=0u 
M1 vdd B Y vdd pfet w=2u l=0.2u
+ ad=0p pd=0u as=0p ps=0u 
M2 Y C vdd vdd pfet w=2u l=0.2u
+ ad=0p pd=0u as=0p ps=0u 
M3 a_9_6# A gnd Gnd nfet w=3u l=0.2u
+ ad=0p pd=0u as=0p ps=0u 
M4 a_14_6# B a_9_6# Gnd nfet w=3u l=0.2u
+ ad=0p pd=0u as=0p ps=0u 
M5 Y C a_14_6# Gnd nfet w=3u l=0.2u
+ ad=0p pd=0u as=0p ps=0u 
.ends NAND3X1

.subckt NOR2X1 vdd B gnd Y A
M0 a_9_54# A vdd vdd pfet w=4u l=0.2u
+ ad=0p pd=0u as=0p ps=0u 
M1 Y B a_9_54# vdd pfet w=4u l=0.2u
+ ad=0p pd=0u as=0p ps=0u 
M2 Y A gnd Gnd nfet w=1u l=0.2u
+ ad=0p pd=0u as=0p ps=0u 
M3 gnd B Y Gnd nfet w=1u l=0.2u
+ ad=0p pd=0u as=0p ps=0u 
.ends NOR2X1

.subckt NOR3X1 vdd gnd B C A Y
M0 vdd A a_2_64# vdd pfet w=3u l=0.2u
+ ad=0p pd=0u as=0p ps=0u 
M1 a_2_64# A vdd vdd pfet w=3u l=0.2u
+ ad=0p pd=0u as=0p ps=0u 
M2 a_25_64# B a_2_64# vdd pfet w=3u l=0.2u
+ ad=0p pd=0u as=0p ps=0u 
M3 a_2_64# B a_25_64# vdd pfet w=3u l=0.2u
+ ad=0p pd=0u as=0p ps=0u 
M4 Y C a_25_64# vdd pfet w=3u l=0.2u
+ ad=0p pd=0u as=0p ps=0u 
M5 a_25_64# C Y vdd pfet w=3u l=0.2u
+ ad=0p pd=0u as=0p ps=0u 
M6 Y A gnd Gnd nfet w=1u l=0.2u
+ ad=0p pd=0u as=0p ps=0u 
M7 gnd B Y Gnd nfet w=1u l=0.2u
+ ad=0p pd=0u as=0p ps=0u 
M8 Y C gnd Gnd nfet w=1u l=0.2u
+ ad=0p pd=0u as=0p ps=0u 
.ends NOR3X1

.subckt OAI21X1 gnd vdd A B Y C
M0 a_9_54# A vdd vdd pfet w=4u l=0.2u
+ ad=0p pd=0u as=0p ps=0u 
M1 Y B a_9_54# vdd pfet w=4u l=0.2u
+ ad=0p pd=0u as=0p ps=0u 
M2 vdd C Y vdd pfet w=2u l=0.2u
+ ad=0p pd=0u as=0p ps=0u 
M3 gnd A a_2_6# Gnd nfet w=2u l=0.2u
+ ad=0p pd=0u as=0p ps=0u 
M4 a_2_6# B gnd Gnd nfet w=2u l=0.2u
+ ad=0p pd=0u as=0p ps=0u 
M5 Y C a_2_6# Gnd nfet w=2u l=0.2u
+ ad=0p pd=0u as=0p ps=0u 
.ends OAI21X1

.subckt OAI22X1 gnd vdd D C A B Y
M0 a_9_54# A vdd vdd pfet w=4u l=0.2u
+ ad=0p pd=0u as=0p ps=0u 
M1 Y B a_9_54# vdd pfet w=4u l=0.2u
+ ad=0p pd=0u as=0p ps=0u 
M2 a_28_54# D Y vdd pfet w=4u l=0.2u
+ ad=0p pd=0u as=0p ps=0u 
M3 vdd C a_28_54# vdd pfet w=4u l=0.2u
+ ad=0p pd=0u as=0p ps=0u 
M4 gnd A a_2_6# Gnd nfet w=2u l=0.2u
+ ad=0p pd=0u as=0p ps=0u 
M5 a_2_6# B gnd Gnd nfet w=2u l=0.2u
+ ad=0p pd=0u as=0p ps=0u 
M6 Y D a_2_6# Gnd nfet w=2u l=0.2u
+ ad=0p pd=0u as=0p ps=0u 
M7 a_2_6# C Y Gnd nfet w=2u l=0.2u
+ ad=0p pd=0u as=0p ps=0u 
.ends OAI22X1

.subckt OR2X1 Y B vdd gnd A
M0 a_9_54# A a_2_54# vdd pfet w=4u l=0.2u
+ ad=0p pd=0u as=0p ps=0u 
M1 vdd B a_9_54# vdd pfet w=4u l=0.2u
+ ad=0p pd=0u as=0p ps=0u 
M2 Y a_2_54# vdd vdd pfet w=2u l=0.2u
+ ad=0p pd=0u as=0p ps=0u 
M3 a_2_54# A gnd Gnd nfet w=1u l=0.2u
+ ad=0p pd=0u as=0p ps=0u 
M4 gnd B a_2_54# Gnd nfet w=1u l=0.2u
+ ad=0p pd=0u as=0p ps=0u 
M5 Y a_2_54# gnd Gnd nfet w=1u l=0.2u
+ ad=0p pd=0u as=0p ps=0u 
.ends OR2X1

.subckt OR2X2 Y B vdd gnd A
M0 a_9_54# A a_2_54# vdd pfet w=4u l=0.2u
+ ad=0p pd=0u as=0p ps=0u 
M1 vdd B a_9_54# vdd pfet w=4u l=0.2u
+ ad=0p pd=0u as=0p ps=0u 
M2 Y a_2_54# vdd vdd pfet w=4u l=0.2u
+ ad=0p pd=0u as=0p ps=0u 
M3 a_2_54# A gnd Gnd nfet w=1u l=0.2u
+ ad=0p pd=0u as=0p ps=0u 
M4 gnd B a_2_54# Gnd nfet w=1u l=0.2u
+ ad=0p pd=0u as=0p ps=0u 
M5 Y a_2_54# gnd Gnd nfet w=2u l=0.2u
+ ad=0p pd=0u as=0p ps=0u 
.ends OR2X2

.subckt TBUFX1 vdd gnd EN A Y
M0 a_9_6# EN vdd vdd pfet w=2u l=0.2u
+ ad=0p pd=0u as=0p ps=0u 
M1 a_26_54# a_9_6# Y vdd pfet w=4u l=0.2u
+ ad=0p pd=0u as=0p ps=0u 
M2 vdd A a_26_54# vdd pfet w=4u l=0.2u
+ ad=0p pd=0u as=0p ps=0u 
M3 a_9_6# EN gnd Gnd nfet w=1u l=0.2u
+ ad=0p pd=0u as=0p ps=0u 
M4 a_26_6# EN Y Gnd nfet w=2u l=0.2u
+ ad=0p pd=0u as=0p ps=0u 
M5 gnd A a_26_6# Gnd nfet w=2u l=0.2u
+ ad=0p pd=0u as=0p ps=0u 
.ends TBUFX1

.subckt TBUFX2 vdd gnd A EN Y
M0 a_9_6# EN vdd vdd pfet w=4u l=0.2u
+ ad=0p pd=0u as=0p ps=0u 
M1 Y a_9_6# a_18_54# vdd pfet w=4u l=0.2u
+ ad=0p pd=0u as=0p ps=0u 
M2 a_18_54# a_9_6# Y vdd pfet w=4u l=0.2u
+ ad=0p pd=0u as=0p ps=0u 
M3 vdd A a_18_54# vdd pfet w=4u l=0.2u
+ ad=0p pd=0u as=0p ps=0u 
M4 a_18_54# A vdd vdd pfet w=4u l=0.2u
+ ad=0p pd=0u as=0p ps=0u 
M5 a_9_6# EN gnd Gnd nfet w=2u l=0.2u
+ ad=0p pd=0u as=0p ps=0u 
M6 Y EN a_18_6# Gnd nfet w=2u l=0.2u
+ ad=0p pd=0u as=0p ps=0u 
M7 a_18_6# EN Y Gnd nfet w=2u l=0.2u
+ ad=0p pd=0u as=0p ps=0u 
M8 gnd A a_18_6# Gnd nfet w=2u l=0.2u
+ ad=0p pd=0u as=0p ps=0u 
M9 a_18_6# A gnd Gnd nfet w=2u l=0.2u
+ ad=0p pd=0u as=0p ps=0u 
.ends TBUFX2

.subckt XNOR2X1 A B gnd vdd Y
M0 vdd A a_2_6# vdd pfet w=4u l=0.2u
+ ad=0p pd=0u as=0p ps=0u 
M1 a_18_54# a_12_41# vdd vdd pfet w=4u l=0.2u
+ ad=0p pd=0u as=0p ps=0u 
M2 Y a_2_6# a_18_54# vdd pfet w=4u l=0.2u
+ ad=0p pd=0u as=0p ps=0u 
M3 a_35_54# A Y vdd pfet w=4u l=0.2u
+ ad=0p pd=0u as=0p ps=0u 
M4 vdd B a_35_54# vdd pfet w=4u l=0.2u
+ ad=0p pd=0u as=0p ps=0u 
M5 a_12_41# B vdd vdd pfet w=4u l=0.2u
+ ad=0p pd=0u as=0p ps=0u 
M6 gnd A a_2_6# Gnd nfet w=2u l=0.2u
+ ad=0p pd=0u as=0p ps=0u 
M7 a_18_6# a_12_41# gnd Gnd nfet w=2u l=0.2u
+ ad=0p pd=0u as=0p ps=0u 
M8 Y A a_18_6# Gnd nfet w=2u l=0.2u
+ ad=0p pd=0u as=0p ps=0u 
M9 a_35_6# a_2_6# Y Gnd nfet w=2u l=0.2u
+ ad=0p pd=0u as=0p ps=0u 
M10 gnd B a_35_6# Gnd nfet w=2u l=0.2u
+ ad=0p pd=0u as=0p ps=0u 
M11 a_12_41# B gnd Gnd nfet w=2u l=0.2u
+ ad=0p pd=0u as=0p ps=0u 
.ends XNOR2X1

.subckt XOR2X1 Y vdd B A gnd
M0 vdd A a_2_6# vdd pfet w=4u l=0.2u
+ ad=0p pd=0u as=0p ps=0u 
M1 a_18_54# a_13_43# vdd vdd pfet w=4u l=0.2u
+ ad=0p pd=0u as=0p ps=0u 
M2 Y A a_18_54# vdd pfet w=4u l=0.2u
+ ad=0p pd=0u as=0p ps=0u 
M3 a_35_54# a_2_6# Y vdd pfet w=4u l=0.2u
+ ad=0p pd=0u as=0p ps=0u 
M4 vdd B a_35_54# vdd pfet w=4u l=0.2u
+ ad=0p pd=0u as=0p ps=0u 
M5 a_13_43# B vdd vdd pfet w=4u l=0.2u
+ ad=0p pd=0u as=0p ps=0u 
M6 gnd A a_2_6# Gnd nfet w=2u l=0.2u
+ ad=0p pd=0u as=0p ps=0u 
M7 a_18_6# a_13_43# gnd Gnd nfet w=2u l=0.2u
+ ad=0p pd=0u as=0p ps=0u 
M8 Y a_2_6# a_18_6# Gnd nfet w=2u l=0.2u
+ ad=0p pd=0u as=0p ps=0u 
M9 a_35_6# A Y Gnd nfet w=2u l=0.2u
+ ad=0p pd=0u as=0p ps=0u 
M10 gnd B a_35_6# Gnd nfet w=2u l=0.2u
+ ad=0p pd=0u as=0p ps=0u 
M11 a_13_43# B gnd Gnd nfet w=2u l=0.2u
+ ad=0p pd=0u as=0p ps=0u 
.ends XOR2X1

** End of included library /usr/local/share/qflow/tech/osu018/osu018_stdcells.sp

.subckt nibble_top vdd gnd CLK DATA_A[0] DATA_A[1] DATA_A[2] DATA_A[3]
+ DATA_A[4] DATA_A[5] DATA_A[6] DATA_A[7] DATA_A[8] DATA_A[9] DATA_A[10] DATA_A[11]
+ DATA_A[12] DATA_A[13] DATA_A[14] DATA_A[15] DATA_A[16] DATA_A[17] DATA_A[18] DATA_A[19]
+ DATA_A[20] DATA_A[21] DATA_A[22] DATA_A[23] DATA_A[24] DATA_A[25] DATA_A[26] DATA_A[27]
+ DATA_A[28] DATA_A[29] DATA_A[30] DATA_A[31] DATA_B[0] DATA_B[1] DATA_B[2] DATA_B[3]
+ DATA_B[4] DATA_B[5] DATA_B[6] DATA_B[7] DATA_B[8] DATA_B[9] DATA_B[10] DATA_B[11]
+ DATA_B[12] DATA_B[13] DATA_B[14] DATA_B[15] DATA_B[16] DATA_B[17] DATA_B[18] DATA_B[19]
+ DATA_B[20] DATA_B[21] DATA_B[22] DATA_B[23] DATA_B[24] DATA_B[25] DATA_B[26] DATA_B[27]
+ DATA_B[28] DATA_B[29] DATA_B[30] DATA_B[31] DATA_OUT[0] DATA_OUT[1] DATA_OUT[2] DATA_OUT[3]
+ RESET_L SEL_A[0] SEL_A[1] SEL_A[2] SEL_A[3] SEL_A[4] SEL_A[5] SEL_A[6]
+ SEL_A[7] SEL_A[8] SEL_A[9] SEL_A[10] SEL_A[11] SEL_AB[0] SEL_AB[1] SEL_AB[2]
+ SEL_AB[3] SEL_B[0] SEL_B[1] SEL_B[2] SEL_B[3] SEL_B[4] SEL_B[5] SEL_B[6]
+ SEL_B[7] SEL_B[8] SEL_B[9] SEL_B[10] SEL_B[11] 

X_1257_ vdd _434_ gnd SEL_A[7] _433_ NAND2X1
X_800_ DATA_A[22] _152_ vdd gnd INVX1
X_1486_ gnd vdd _762_ _763_ _766_ _765_ OAI21X1
X_1066_ vdd _251_ gnd SEL_B_5_bF$buf3 _250_ NAND2X1
X_1295_ _625_ vdd gnd SEL_A[10] _624_ _626_ NAND3X1
X_1389_ vdd _560_ gnd SEL_B_11_bF$buf2 _559_ NAND2X1
XFILL_7_1 vdd gnd FILL
X_1601_ vdd _639_[0] gnd NIBBLE_MAYOR[0] CLK_bF$buf4 DFFPOSX1
X_932_ DATA_B[29] _123_ vdd gnd INVX1
X_1198_ vdd _377_ gnd SEL_B[7] _376_ NAND2X1
X_1410_ _577_ vdd gnd _618_ _579_ _580_ NAND3X1
XBUFX2_insert30 vdd gnd SEL_A[2] SEL_A_2_bF$buf4 BUFX2
XBUFX2_insert31 vdd gnd SEL_A[2] SEL_A_2_bF$buf3 BUFX2
XBUFX2_insert32 vdd gnd SEL_A[2] SEL_A_2_bF$buf2 BUFX2
XBUFX2_insert33 vdd gnd SEL_A[2] SEL_A_2_bF$buf1 BUFX2
XBUFX2_insert34 vdd gnd SEL_A[2] SEL_A_2_bF$buf0 BUFX2
XBUFX2_insert35 vdd gnd SEL_A[11] SEL_A_11_bF$buf4 BUFX2
XBUFX2_insert36 vdd gnd SEL_A[11] SEL_A_11_bF$buf3 BUFX2
XBUFX2_insert37 vdd gnd SEL_A[11] SEL_A_11_bF$buf2 BUFX2
XBUFX2_insert38 vdd gnd SEL_A[11] SEL_A_11_bF$buf1 BUFX2
XBUFX2_insert39 vdd gnd SEL_A[11] SEL_A_11_bF$buf0 BUFX2
X_970_ vdd _315_ gnd SEL_A_5_bF$buf0 DATA_A[30] NAND2X1
X_1504_ gnd vdd _652_ \nibble_mayor.nibble_A [1] _651_ \nibble_mayor.nibble_A [3] 
+ _653_
+ OAI22X1
X_835_ DATA_A[27] _28_ vdd gnd INVX1
X_1313_ DATA_B[26] _486_ vdd gnd INVX1
X_1542_ vdd _691_ gnd _659_ _677_ NAND2X1
X_1122_ _460_ DATA_A[2] vdd gnd SEL_A_8_bF$buf1 OR2X2
X_873_ _62_ vdd gnd _141_ _64_ _65_ NAND3X1
X_929_ DATA_B[21] _120_ vdd gnd INVX1
X_1351_ _520_ vdd gnd _481_ _522_ _523_ NAND3X1
X_1407_ _577_ DATA_A[1] vdd gnd SEL_A_11_bF$buf1 OR2X2
X_1580_ gnd vdd _701_ _702_ _729_ _706_ OAI21X1
X_1160_ _335_ vdd gnd SEL_B[6] _339_ _340_ NAND3X1
X_1216_ vdd _394_ gnd SEL_A_8_bF$buf3 DATA_A[28] NAND2X1
X_967_ vdd _312_ gnd SEL_A_5_bF$buf0 _311_ NAND2X1
X_1445_ gnd vdd _595_ _614_ _479_[1] _615_ AOI21X1
X_1025_ _211_ DATA_B[3] vdd gnd SEL_B_5_bF$buf1 OR2X2
X_776_ vdd gnd RESET_L_bF$buf2 NIBBLE_MAYOR[2] _0_[2] AND2X2
X_1254_ DATA_A[13] _431_ vdd gnd INVX1
X_1483_ vdd gnd \nibble_mayor.nibble_C [3] \nibble_mayor.nibble_D [3] _763_ AND2X2
X_1063_ _243_ vdd gnd SEL_B[3] _247_ _248_ NAND3X1
XFILL_13_1_0 vdd gnd FILL
XFILL_13_1_1 vdd gnd FILL
X_1539_ vdd _688_ gnd _680_ _687_ NAND2X1
X_1119_ vdd gnd _457_ SEL_AB[2] INVX2
X_1292_ DATA_A[26] _623_ vdd gnd INVX1
X_1348_ _520_ DATA_B[7] vdd gnd SEL_B_11_bF$buf0 OR2X2
X_1577_ _646_ _726_ vdd gnd INVX1
X_1157_ vdd _337_ gnd SEL_B_8_bF$buf4 DATA_B[30] NAND2X1
X_1386_ _547_ vdd gnd _616_ _556_ _557_ NAND3X1
X_1195_ DATA_B[11] _374_ vdd gnd INVX1
XFILL_5_1_0 vdd gnd FILL
XFILL_5_1_1 vdd gnd FILL
X_1289_ DATA_A[18] _620_ vdd gnd INVX1
XFILL_0_1_0 vdd gnd FILL
XFILL_0_1_1 vdd gnd FILL
X_1501_ vdd _649_ gnd _650_ \nibble_mayor.nibble_A [2] NOR2X1
X_832_ DATA_A[19] _25_ vdd gnd INVX1
X_1098_ DATA_B[29] _282_ vdd gnd INVX1
X_1310_ DATA_B[18] _483_ vdd gnd INVX1
XFILL_15_0_0 vdd gnd FILL
XFILL_15_0_1 vdd gnd FILL
X_870_ _62_ DATA_A[0] vdd gnd SEL_A_2_bF$buf3 OR2X2
X_926_ _112_ vdd gnd SEL_A[0] _116_ _117_ NAND3X1
XFILL_10_0_0 vdd gnd FILL
XFILL_10_0_1 vdd gnd FILL
X_1404_ _570_ vdd gnd _480_ _574_ _575_ NAND3X1
X_1213_ vdd _391_ gnd SEL_A_8_bF$buf4 _390_ NAND2X1
X_964_ _304_ vdd gnd _299_ _308_ _309_ NAND3X1
X_1442_ vdd _612_ gnd SEL_B[10] _611_ NAND2X1
X_1022_ _208_ DATA_B[15] vdd gnd SEL_B_5_bF$buf0 OR2X2
X_829_ _13_ vdd gnd SEL_AB[0] _22_ _23_ NAND3X1
X_1251_ DATA_A[21] _428_ vdd gnd INVX1
X_1307_ vdd gnd _480_ SEL_B[9] INVX2