* XSpice netlist created from SPICE and liberty sources by spi2xspice.py
*SPICE netlist created from BLIF module selector4 by blif2BSpice
.subckt selector4 a_vdd a_gnd a_DATA_A_0_ a_DATA_A_1_ a_DATA_A_2_ a_DATA_A_3_ a_DATA_A_4_ a_DATA_A_5_ a_DATA_A_6_ a_DATA_A_7_ a_DATA_A_8_ a_DATA_A_9_ a_DATA_A_10_ a_DATA_A_11_ a_DATA_A_12_ a_DATA_A_13_ a_DATA_A_14_ a_DATA_A_15_ a_DATA_A_16_ a_DATA_A_17_ a_DATA_A_18_ a_DATA_A_19_ a_DATA_A_20_ a_DATA_A_21_ a_DATA_A_22_ a_DATA_A_23_ a_DATA_A_24_ a_DATA_A_25_ a_DATA_A_26_ a_DATA_A_27_ a_DATA_A_28_ a_DATA_A_29_ a_DATA_A_30_ a_DATA_A_31_ a_DATA_B_0_ a_DATA_B_1_ a_DATA_B_2_ a_DATA_B_3_ a_DATA_B_4_ a_DATA_B_5_ a_DATA_B_6_ a_DATA_B_7_ a_DATA_B_8_ a_DATA_B_9_ a_DATA_B_10_ a_DATA_B_11_ a_DATA_B_12_ a_DATA_B_13_ a_DATA_B_14_ a_DATA_B_15_ a_DATA_B_16_ a_DATA_B_17_ a_DATA_B_18_ a_DATA_B_19_ a_DATA_B_20_ a_DATA_B_21_ a_DATA_B_22_ a_DATA_B_23_ a_DATA_B_24_ a_DATA_B_25_ a_DATA_B_26_ a_DATA_B_27_ a_DATA_B_28_ a_DATA_B_29_ a_DATA_B_30_ a_DATA_B_31_ a_sel_A_0_ a_sel_A_1_ a_sel_A_2_ a_sel_A_3_ a_sel_A_4_ a_sel_A_5_ a_sel_A_6_ a_sel_A_7_ a_sel_A_8_ a_sel_A_9_ a_sel_A_10_ a_sel_A_11_ a_sel_B_0_ a_sel_B_1_ a_sel_B_2_ a_sel_B_3_ a_sel_B_4_ a_sel_B_5_ a_sel_B_6_ a_sel_B_7_ a_sel_B_8_ a_sel_B_9_ a_sel_B_10_ a_sel_B_11_ a_SEL_0_ a_SEL_1_ a_SEL_2_ a_SEL_3_ a_RESET_L a_CLK a_temp_0_ a_temp_1_ a_temp_2_ a_temp_3_ a_temp_4_ a_temp_5_ a_temp_6_ a_temp_7_ a_temp_8_ a_temp_9_ a_temp_10_ a_temp_11_ a_temp_12_ a_temp_13_ a_temp_14_ a_temp_15_
ABUFX4_1 [sel_A_11_] sel_A_11_bF$buf4_ d_lut_BUFX4
ABUFX4_2 [sel_A_11_] sel_A_11_bF$buf3_ d_lut_BUFX4
ABUFX4_3 [sel_A_11_] sel_A_11_bF$buf2_ d_lut_BUFX4
ABUFX4_4 [sel_A_11_] sel_A_11_bF$buf1_ d_lut_BUFX4
ABUFX4_5 [sel_A_11_] sel_A_11_bF$buf0_ d_lut_BUFX4
ABUFX4_6 [sel_B_8_] sel_B_8_bF$buf4_ d_lut_BUFX4
ABUFX4_7 [sel_B_8_] sel_B_8_bF$buf3_ d_lut_BUFX4
ABUFX4_8 [sel_B_8_] sel_B_8_bF$buf2_ d_lut_BUFX4
ABUFX4_9 [sel_B_8_] sel_B_8_bF$buf1_ d_lut_BUFX4
ABUFX4_10 [sel_B_8_] sel_B_8_bF$buf0_ d_lut_BUFX4
ABUFX4_11 [sel_B_5_] sel_B_5_bF$buf4_ d_lut_BUFX4
ABUFX4_12 [sel_B_5_] sel_B_5_bF$buf3_ d_lut_BUFX4
ABUFX4_13 [sel_B_5_] sel_B_5_bF$buf2_ d_lut_BUFX4
ABUFX4_14 [sel_B_5_] sel_B_5_bF$buf1_ d_lut_BUFX4
ABUFX4_15 [sel_B_5_] sel_B_5_bF$buf0_ d_lut_BUFX4
ABUFX4_16 [sel_A_8_] sel_A_8_bF$buf4_ d_lut_BUFX4
ABUFX4_17 [sel_A_8_] sel_A_8_bF$buf3_ d_lut_BUFX4
ABUFX4_18 [sel_A_8_] sel_A_8_bF$buf2_ d_lut_BUFX4
ABUFX4_19 [sel_A_8_] sel_A_8_bF$buf1_ d_lut_BUFX4
ABUFX4_20 [sel_A_8_] sel_A_8_bF$buf0_ d_lut_BUFX4
ABUFX4_21 [sel_B_2_] sel_B_2_bF$buf4_ d_lut_BUFX4
ABUFX4_22 [sel_B_2_] sel_B_2_bF$buf3_ d_lut_BUFX4
ABUFX4_23 [sel_B_2_] sel_B_2_bF$buf2_ d_lut_BUFX4
ABUFX4_24 [sel_B_2_] sel_B_2_bF$buf1_ d_lut_BUFX4
ABUFX4_25 [sel_B_2_] sel_B_2_bF$buf0_ d_lut_BUFX4
ABUFX4_26 [sel_A_5_] sel_A_5_bF$buf4_ d_lut_BUFX4
ABUFX4_27 [sel_A_5_] sel_A_5_bF$buf3_ d_lut_BUFX4
ABUFX4_28 [sel_A_5_] sel_A_5_bF$buf2_ d_lut_BUFX4
ABUFX4_29 [sel_A_5_] sel_A_5_bF$buf1_ d_lut_BUFX4
ABUFX4_30 [sel_A_5_] sel_A_5_bF$buf0_ d_lut_BUFX4
ABUFX4_31 [sel_A_2_] sel_A_2_bF$buf4_ d_lut_BUFX4
ABUFX4_32 [sel_A_2_] sel_A_2_bF$buf3_ d_lut_BUFX4
ABUFX4_33 [sel_A_2_] sel_A_2_bF$buf2_ d_lut_BUFX4
ABUFX4_34 [sel_A_2_] sel_A_2_bF$buf1_ d_lut_BUFX4
ABUFX4_35 [sel_A_2_] sel_A_2_bF$buf0_ d_lut_BUFX4
ABUFX4_36 [sel_B_11_] sel_B_11_bF$buf4_ d_lut_BUFX4
ABUFX4_37 [sel_B_11_] sel_B_11_bF$buf3_ d_lut_BUFX4
ABUFX4_38 [sel_B_11_] sel_B_11_bF$buf2_ d_lut_BUFX4
ABUFX4_39 [sel_B_11_] sel_B_11_bF$buf1_ d_lut_BUFX4
ABUFX4_40 [sel_B_11_] sel_B_11_bF$buf0_ d_lut_BUFX4
ANAND2X1_1 [sel_B_8_bF$buf4_ _469_] _470_ d_lut_NAND2X1
ANAND3X1_1 [_458_ _468_ _470_] _471_ d_lut_NAND3X1
AINVX1_1 [DATA_B_12_] _472_ d_lut_INVX1
ANAND2X1_2 [sel_B_8_bF$buf3_ DATA_B_28_] _473_ d_lut_NAND2X1
AOAI21X1_1 [_472_ sel_B_8_bF$buf2_ _473_] _474_ d_lut_OAI21X1
ANAND2X1_3 [sel_B_7_ _474_] _475_ d_lut_NAND2X1
ANAND3X1_2 [sel_B_6_ _471_ _475_] _476_ d_lut_NAND3X1
ANAND3X1_3 [_456_ _467_ _476_] _477_ d_lut_NAND3X1
AINVX2_1 [sel_A_6_] _320_ d_lut_INVX2
AINVX4_1 [sel_A_7_] _321_ d_lut_INVX4
AOR2X2_1 [DATA_A_0_ sel_A_8_bF$buf4_] _322_ d_lut_OR2X2
AINVX1_2 [DATA_A_16_] _323_ d_lut_INVX1
ANAND2X1_4 [sel_A_8_bF$buf3_ _323_] _324_ d_lut_NAND2X1
ANAND3X1_4 [_321_ _322_ _324_] _325_ d_lut_NAND3X1
AINVX1_3 [DATA_A_24_] _326_ d_lut_INVX1
ANAND2X1_5 [sel_A_8_bF$buf2_ _326_] _327_ d_lut_NAND2X1
AOR2X2_2 [sel_A_8_bF$buf1_ DATA_A_8_] _328_ d_lut_OR2X2
ANAND3X1_5 [sel_A_7_ _328_ _327_] _329_ d_lut_NAND3X1
ANAND3X1_6 [_320_ _325_ _329_] _330_ d_lut_NAND3X1
AOR2X2_3 [sel_A_8_bF$buf0_ DATA_A_4_] _331_ d_lut_OR2X2
AINVX1_4 [DATA_A_20_] _332_ d_lut_INVX1
ANAND2X1_6 [sel_A_8_bF$buf4_ _332_] _333_ d_lut_NAND2X1
ANAND3X1_7 [_321_ _331_ _333_] _334_ d_lut_NAND3X1
AINVX1_5 [DATA_A_12_] _335_ d_lut_INVX1
ANAND2X1_7 [sel_A_8_bF$buf3_ DATA_A_28_] _336_ d_lut_NAND2X1
AOAI21X1_2 [_335_ sel_A_8_bF$buf2_ _336_] _337_ d_lut_OAI21X1
ANAND2X1_8 [sel_A_7_ _337_] _338_ d_lut_NAND2X1
ANAND3X1_8 [sel_A_6_ _334_ _338_] _339_ d_lut_NAND3X1
ANAND3X1_9 [SEL_2_ _330_ _339_] _340_ d_lut_NAND3X1
AAOI21X1_1 [_477_ _340_ _455_] _319__0_ d_lut_AOI21X1
AOR2X2_4 [sel_B_8_bF$buf1_ DATA_B_1_] _341_ d_lut_OR2X2
AINVX1_6 [DATA_B_17_] _342_ d_lut_INVX1
ANAND2X1_9 [sel_B_8_bF$buf0_ _342_] _343_ d_lut_NAND2X1
ANAND3X1_10 [_458_ _341_ _343_] _344_ d_lut_NAND3X1
AINVX1_7 [DATA_B_25_] _345_ d_lut_INVX1
ANAND2X1_10 [sel_B_8_bF$buf4_ _345_] _346_ d_lut_NAND2X1
AOR2X2_5 [sel_B_8_bF$buf3_ DATA_B_9_] _347_ d_lut_OR2X2
ANAND3X1_11 [sel_B_7_ _347_ _346_] _348_ d_lut_NAND3X1
ANAND3X1_12 [_457_ _344_ _348_] _349_ d_lut_NAND3X1
AOR2X2_6 [sel_B_8_bF$buf2_ DATA_B_5_] _350_ d_lut_OR2X2
AINVX1_8 [DATA_B_21_] _351_ d_lut_INVX1
ANAND2X1_11 [sel_B_8_bF$buf1_ _351_] _352_ d_lut_NAND2X1
ANAND3X1_13 [_458_ _350_ _352_] _353_ d_lut_NAND3X1
AINVX1_9 [DATA_B_13_] _354_ d_lut_INVX1
ANAND2X1_12 [sel_B_8_bF$buf0_ DATA_B_29_] _355_ d_lut_NAND2X1
AOAI21X1_3 [_354_ sel_B_8_bF$buf4_ _355_] _356_ d_lut_OAI21X1
ANAND2X1_13 [sel_B_7_ _356_] _357_ d_lut_NAND2X1
ANAND3X1_14 [sel_B_6_ _353_ _357_] _358_ d_lut_NAND3X1
ANAND3X1_15 [_456_ _349_ _358_] _359_ d_lut_NAND3X1
AOR2X2_7 [sel_A_8_bF$buf1_ DATA_A_1_] _360_ d_lut_OR2X2
AINVX1_10 [DATA_A_17_] _361_ d_lut_INVX1
ANAND2X1_14 [sel_A_8_bF$buf0_ _361_] _362_ d_lut_NAND2X1
ANAND3X1_16 [_321_ _360_ _362_] _363_ d_lut_NAND3X1
AINVX1_11 [DATA_A_25_] _364_ d_lut_INVX1
ANAND2X1_15 [sel_A_8_bF$buf4_ _364_] _365_ d_lut_NAND2X1
AOR2X2_8 [sel_A_8_bF$buf3_ DATA_A_9_] _366_ d_lut_OR2X2
ANAND3X1_17 [sel_A_7_ _366_ _365_] _367_ d_lut_NAND3X1
ANAND3X1_18 [_320_ _363_ _367_] _368_ d_lut_NAND3X1
AOR2X2_9 [sel_A_8_bF$buf2_ DATA_A_5_] _369_ d_lut_OR2X2
AINVX1_12 [DATA_A_21_] _370_ d_lut_INVX1
ANAND2X1_16 [sel_A_8_bF$buf1_ _370_] _371_ d_lut_NAND2X1
ANAND3X1_19 [_321_ _369_ _371_] _372_ d_lut_NAND3X1
AINVX1_13 [DATA_A_13_] _373_ d_lut_INVX1
ANAND2X1_17 [sel_A_8_bF$buf0_ DATA_A_29_] _374_ d_lut_NAND2X1
AOAI21X1_4 [_373_ sel_A_8_bF$buf4_ _374_] _375_ d_lut_OAI21X1
ANAND2X1_18 [sel_A_7_ _375_] _376_ d_lut_NAND2X1
ANAND3X1_20 [sel_A_6_ _372_ _376_] _377_ d_lut_NAND3X1
ANAND3X1_21 [SEL_2_ _368_ _377_] _378_ d_lut_NAND3X1
AAOI21X1_2 [_359_ _378_ _455_] _319__1_ d_lut_AOI21X1
AOR2X2_10 [sel_B_8_bF$buf3_ DATA_B_2_] _379_ d_lut_OR2X2
AINVX1_14 [DATA_B_18_] _380_ d_lut_INVX1
ANAND2X1_19 [sel_B_8_bF$buf2_ _380_] _381_ d_lut_NAND2X1
ANAND3X1_22 [_458_ _379_ _381_] _382_ d_lut_NAND3X1
AINVX1_15 [DATA_B_26_] _383_ d_lut_INVX1
ANAND2X1_20 [sel_B_8_bF$buf1_ _383_] _384_ d_lut_NAND2X1
AOR2X2_11 [sel_B_8_bF$buf0_ DATA_B_10_] _385_ d_lut_OR2X2
ANAND3X1_23 [sel_B_7_ _385_ _384_] _386_ d_lut_NAND3X1
ANAND3X1_24 [_457_ _382_ _386_] _387_ d_lut_NAND3X1
AOR2X2_12 [sel_B_8_bF$buf4_ DATA_B_6_] _388_ d_lut_OR2X2
AINVX1_16 [DATA_B_22_] _389_ d_lut_INVX1
ANAND2X1_21 [sel_B_8_bF$buf3_ _389_] _390_ d_lut_NAND2X1
ANAND3X1_25 [_458_ _388_ _390_] _391_ d_lut_NAND3X1
AINVX1_17 [DATA_B_14_] _392_ d_lut_INVX1
ANAND2X1_22 [sel_B_8_bF$buf2_ DATA_B_30_] _393_ d_lut_NAND2X1
AOAI21X1_5 [_392_ sel_B_8_bF$buf1_ _393_] _394_ d_lut_OAI21X1
ANAND2X1_23 [sel_B_7_ _394_] _395_ d_lut_NAND2X1
ANAND3X1_26 [sel_B_6_ _391_ _395_] _396_ d_lut_NAND3X1
ANAND3X1_27 [_456_ _387_ _396_] _397_ d_lut_NAND3X1
AOR2X2_13 [sel_A_8_bF$buf3_ DATA_A_6_] _398_ d_lut_OR2X2
AINVX1_18 [DATA_A_22_] _399_ d_lut_INVX1
ANAND2X1_24 [sel_A_8_bF$buf2_ _399_] _400_ d_lut_NAND2X1
ANAND3X1_28 [_321_ _398_ _400_] _401_ d_lut_NAND3X1
AINVX1_19 [DATA_A_30_] _402_ d_lut_INVX1
ANAND2X1_25 [sel_A_8_bF$buf1_ _402_] _403_ d_lut_NAND2X1
AOR2X2_14 [sel_A_8_bF$buf0_ DATA_A_14_] _404_ d_lut_OR2X2
ANAND3X1_29 [sel_A_7_ _404_ _403_] _405_ d_lut_NAND3X1
ANAND3X1_30 [sel_A_6_ _401_ _405_] _406_ d_lut_NAND3X1
AOR2X2_15 [sel_A_8_bF$buf4_ DATA_A_2_] _407_ d_lut_OR2X2
AINVX1_20 [DATA_A_18_] _408_ d_lut_INVX1
ANAND2X1_26 [sel_A_8_bF$buf3_ _408_] _409_ d_lut_NAND2X1
ANAND3X1_31 [_321_ _407_ _409_] _410_ d_lut_NAND3X1
AINVX1_21 [DATA_A_10_] _411_ d_lut_INVX1
ANAND2X1_27 [sel_A_8_bF$buf2_ DATA_A_26_] _412_ d_lut_NAND2X1
AOAI21X1_6 [_411_ sel_A_8_bF$buf1_ _412_] _413_ d_lut_OAI21X1
ANAND2X1_28 [sel_A_7_ _413_] _414_ d_lut_NAND2X1
ANAND3X1_32 [_320_ _410_ _414_] _415_ d_lut_NAND3X1
ANAND3X1_33 [SEL_2_ _406_ _415_] _416_ d_lut_NAND3X1
AAOI21X1_3 [_397_ _416_ _455_] _319__2_ d_lut_AOI21X1
AOR2X2_16 [sel_B_8_bF$buf0_ DATA_B_3_] _417_ d_lut_OR2X2
AINVX1_22 [DATA_B_19_] _418_ d_lut_INVX1
ANAND2X1_29 [sel_B_8_bF$buf4_ _418_] _419_ d_lut_NAND2X1
ANAND3X1_34 [_458_ _417_ _419_] _420_ d_lut_NAND3X1
AINVX1_23 [DATA_B_27_] _421_ d_lut_INVX1
ANAND2X1_30 [sel_B_8_bF$buf3_ _421_] _422_ d_lut_NAND2X1
AOR2X2_17 [sel_B_8_bF$buf2_ DATA_B_11_] _423_ d_lut_OR2X2
ANAND3X1_35 [sel_B_7_ _423_ _422_] _424_ d_lut_NAND3X1
ANAND3X1_36 [_457_ _420_ _424_] _425_ d_lut_NAND3X1
AOR2X2_18 [sel_B_8_bF$buf1_ DATA_B_7_] _426_ d_lut_OR2X2
AINVX1_24 [DATA_B_23_] _427_ d_lut_INVX1
ANAND2X1_31 [sel_B_8_bF$buf0_ _427_] _428_ d_lut_NAND2X1
ANAND3X1_37 [_458_ _426_ _428_] _429_ d_lut_NAND3X1
AINVX1_25 [DATA_B_15_] _430_ d_lut_INVX1
ANAND2X1_32 [sel_B_8_bF$buf4_ DATA_B_31_] _431_ d_lut_NAND2X1
AOAI21X1_7 [_430_ sel_B_8_bF$buf3_ _431_] _432_ d_lut_OAI21X1
ANAND2X1_33 [sel_B_7_ _432_] _433_ d_lut_NAND2X1
ANAND3X1_38 [sel_B_6_ _429_ _433_] _434_ d_lut_NAND3X1
ANAND3X1_39 [_456_ _425_ _434_] _435_ d_lut_NAND3X1
AOR2X2_19 [sel_A_8_bF$buf0_ DATA_A_3_] _436_ d_lut_OR2X2
AINVX1_26 [DATA_A_19_] _437_ d_lut_INVX1
ANAND2X1_34 [sel_A_8_bF$buf4_ _437_] _438_ d_lut_NAND2X1
ANAND3X1_40 [_321_ _436_ _438_] _439_ d_lut_NAND3X1
AINVX1_27 [DATA_A_27_] _440_ d_lut_INVX1
ANAND2X1_35 [sel_A_8_bF$buf3_ _440_] _441_ d_lut_NAND2X1
AOR2X2_20 [sel_A_8_bF$buf2_ DATA_A_11_] _442_ d_lut_OR2X2
ANAND3X1_41 [sel_A_7_ _442_ _441_] _443_ d_lut_NAND3X1
ANAND3X1_42 [_320_ _439_ _443_] _444_ d_lut_NAND3X1
AOR2X2_21 [sel_A_8_bF$buf1_ DATA_A_7_] _445_ d_lut_OR2X2
AINVX1_28 [DATA_A_23_] _446_ d_lut_INVX1
ANAND2X1_36 [sel_A_8_bF$buf0_ _446_] _447_ d_lut_NAND2X1
ANAND3X1_43 [_321_ _445_ _447_] _448_ d_lut_NAND3X1
AINVX1_29 [DATA_A_15_] _449_ d_lut_INVX1
ANAND2X1_37 [sel_A_8_bF$buf4_ DATA_A_31_] _450_ d_lut_NAND2X1
AOAI21X1_8 [_449_ sel_A_8_bF$buf3_ _450_] _451_ d_lut_OAI21X1
ANAND2X1_38 [sel_A_7_ _451_] _452_ d_lut_NAND2X1
ANAND3X1_44 [sel_A_6_ _448_ _452_] _453_ d_lut_NAND3X1
ANAND3X1_45 [SEL_2_ _444_ _453_] _454_ d_lut_NAND3X1
AAOI21X1_4 [_435_ _454_ _455_] _319__3_ d_lut_AOI21X1
ADFFPOSX1_1 _319__0_ CLK NULL NULL _0__8_ NULL ddflop
ADFFPOSX1_2 _319__1_ CLK NULL NULL _0__9_ NULL ddflop
ADFFPOSX1_3 _319__2_ CLK NULL NULL _0__10_ NULL ddflop
ADFFPOSX1_4 _319__3_ CLK NULL NULL _0__11_ NULL ddflop
AINVX2_2 [RESET_L] _614_ d_lut_INVX2
AINVX2_3 [SEL_3_] _615_ d_lut_INVX2
AINVX2_4 [sel_B_9_] _616_ d_lut_INVX2
AINVX4_2 [sel_B_10_] _617_ d_lut_INVX4
AOR2X2_22 [DATA_B_0_ sel_B_11_bF$buf4_] _618_ d_lut_OR2X2
AINVX1_30 [DATA_B_16_] _619_ d_lut_INVX1
ANAND2X1_39 [sel_B_11_bF$buf3_ _619_] _620_ d_lut_NAND2X1
ANAND3X1_46 [_617_ _618_ _620_] _621_ d_lut_NAND3X1
AINVX1_31 [DATA_B_24_] _622_ d_lut_INVX1
ANAND2X1_40 [sel_B_11_bF$buf2_ _622_] _623_ d_lut_NAND2X1
AOR2X2_23 [sel_B_11_bF$buf1_ DATA_B_8_] _624_ d_lut_OR2X2
ANAND3X1_47 [sel_B_10_ _624_ _623_] _625_ d_lut_NAND3X1
ANAND3X1_48 [_616_ _621_ _625_] _626_ d_lut_NAND3X1
AOR2X2_24 [sel_B_11_bF$buf0_ DATA_B_4_] _627_ d_lut_OR2X2
AINVX1_32 [DATA_B_20_] _628_ d_lut_INVX1
ANAND2X1_41 [sel_B_11_bF$buf4_ _628_] _629_ d_lut_NAND2X1
ANAND3X1_49 [_617_ _627_ _629_] _630_ d_lut_NAND3X1
AINVX1_33 [DATA_B_12_] _631_ d_lut_INVX1
ANAND2X1_42 [sel_B_11_bF$buf3_ DATA_B_28_] _632_ d_lut_NAND2X1
AOAI21X1_9 [_631_ sel_B_11_bF$buf2_ _632_] _633_ d_lut_OAI21X1
ANAND2X1_43 [sel_B_10_ _633_] _634_ d_lut_NAND2X1
ANAND3X1_50 [sel_B_9_ _630_ _634_] _635_ d_lut_NAND3X1
ANAND3X1_51 [_615_ _626_ _635_] _636_ d_lut_NAND3X1
AINVX2_5 [sel_A_9_] _479_ d_lut_INVX2
AINVX4_3 [sel_A_10_] _480_ d_lut_INVX4
AOR2X2_25 [DATA_A_0_ sel_A_11_bF$buf4_] _481_ d_lut_OR2X2
AINVX1_34 [DATA_A_16_] _482_ d_lut_INVX1
ANAND2X1_44 [sel_A_11_bF$buf3_ _482_] _483_ d_lut_NAND2X1
ANAND3X1_52 [_480_ _481_ _483_] _484_ d_lut_NAND3X1
AINVX1_35 [DATA_A_24_] _485_ d_lut_INVX1
ANAND2X1_45 [sel_A_11_bF$buf2_ _485_] _486_ d_lut_NAND2X1
AOR2X2_26 [sel_A_11_bF$buf1_ DATA_A_8_] _487_ d_lut_OR2X2
ANAND3X1_53 [sel_A_10_ _487_ _486_] _488_ d_lut_NAND3X1
ANAND3X1_54 [_479_ _484_ _488_] _489_ d_lut_NAND3X1
AOR2X2_27 [sel_A_11_bF$buf0_ DATA_A_4_] _490_ d_lut_OR2X2
AINVX1_36 [DATA_A_20_] _491_ d_lut_INVX1
ANAND2X1_46 [sel_A_11_bF$buf4_ _491_] _492_ d_lut_NAND2X1
ANAND3X1_55 [_480_ _490_ _492_] _493_ d_lut_NAND3X1
AINVX1_37 [DATA_A_12_] _494_ d_lut_INVX1
ANAND2X1_47 [sel_A_11_bF$buf3_ DATA_A_28_] _495_ d_lut_NAND2X1
AOAI21X1_10 [_494_ sel_A_11_bF$buf2_ _495_] _496_ d_lut_OAI21X1
ANAND2X1_48 [sel_A_10_ _496_] _497_ d_lut_NAND2X1
ANAND3X1_56 [sel_A_9_ _493_ _497_] _498_ d_lut_NAND3X1
ANAND3X1_57 [SEL_3_ _489_ _498_] _499_ d_lut_NAND3X1
AAOI21X1_5 [_636_ _499_ _614_] _478__0_ d_lut_AOI21X1
AOR2X2_28 [sel_B_11_bF$buf1_ DATA_B_1_] _500_ d_lut_OR2X2
AINVX1_38 [DATA_B_17_] _501_ d_lut_INVX1
ANAND2X1_49 [sel_B_11_bF$buf0_ _501_] _502_ d_lut_NAND2X1
ANAND3X1_58 [_617_ _500_ _502_] _503_ d_lut_NAND3X1
AINVX1_39 [DATA_B_25_] _504_ d_lut_INVX1
ANAND2X1_50 [sel_B_11_bF$buf4_ _504_] _505_ d_lut_NAND2X1
AOR2X2_29 [sel_B_11_bF$buf3_ DATA_B_9_] _506_ d_lut_OR2X2
ANAND3X1_59 [sel_B_10_ _506_ _505_] _507_ d_lut_NAND3X1
ANAND3X1_60 [_616_ _503_ _507_] _508_ d_lut_NAND3X1
AOR2X2_30 [sel_B_11_bF$buf2_ DATA_B_5_] _509_ d_lut_OR2X2
AINVX1_40 [DATA_B_21_] _510_ d_lut_INVX1
ANAND2X1_51 [sel_B_11_bF$buf1_ _510_] _511_ d_lut_NAND2X1
ANAND3X1_61 [_617_ _509_ _511_] _512_ d_lut_NAND3X1
AINVX1_41 [DATA_B_13_] _513_ d_lut_INVX1
ANAND2X1_52 [sel_B_11_bF$buf0_ DATA_B_29_] _514_ d_lut_NAND2X1
AOAI21X1_11 [_513_ sel_B_11_bF$buf4_ _514_] _515_ d_lut_OAI21X1
ANAND2X1_53 [sel_B_10_ _515_] _516_ d_lut_NAND2X1
ANAND3X1_62 [sel_B_9_ _512_ _516_] _517_ d_lut_NAND3X1
ANAND3X1_63 [_615_ _508_ _517_] _518_ d_lut_NAND3X1
AOR2X2_31 [sel_A_11_bF$buf1_ DATA_A_1_] _519_ d_lut_OR2X2
AINVX1_42 [DATA_A_17_] _520_ d_lut_INVX1
ANAND2X1_54 [sel_A_11_bF$buf0_ _520_] _521_ d_lut_NAND2X1
ANAND3X1_64 [_480_ _519_ _521_] _522_ d_lut_NAND3X1
AINVX1_43 [DATA_A_25_] _523_ d_lut_INVX1
ANAND2X1_55 [sel_A_11_bF$buf4_ _523_] _524_ d_lut_NAND2X1
AOR2X2_32 [sel_A_11_bF$buf3_ DATA_A_9_] _525_ d_lut_OR2X2
ANAND3X1_65 [sel_A_10_ _525_ _524_] _526_ d_lut_NAND3X1
ANAND3X1_66 [_479_ _522_ _526_] _527_ d_lut_NAND3X1
AOR2X2_33 [sel_A_11_bF$buf2_ DATA_A_5_] _528_ d_lut_OR2X2
AINVX1_44 [DATA_A_21_] _529_ d_lut_INVX1
ANAND2X1_56 [sel_A_11_bF$buf1_ _529_] _530_ d_lut_NAND2X1
ANAND3X1_67 [_480_ _528_ _530_] _531_ d_lut_NAND3X1
AINVX1_45 [DATA_A_13_] _532_ d_lut_INVX1
ANAND2X1_57 [sel_A_11_bF$buf0_ DATA_A_29_] _533_ d_lut_NAND2X1
AOAI21X1_12 [_532_ sel_A_11_bF$buf4_ _533_] _534_ d_lut_OAI21X1
ANAND2X1_58 [sel_A_10_ _534_] _535_ d_lut_NAND2X1
ANAND3X1_68 [sel_A_9_ _531_ _535_] _536_ d_lut_NAND3X1
ANAND3X1_69 [SEL_3_ _527_ _536_] _537_ d_lut_NAND3X1
AAOI21X1_6 [_518_ _537_ _614_] _478__1_ d_lut_AOI21X1
AOR2X2_34 [sel_B_11_bF$buf3_ DATA_B_2_] _538_ d_lut_OR2X2
AINVX1_46 [DATA_B_18_] _539_ d_lut_INVX1
ANAND2X1_59 [sel_B_11_bF$buf2_ _539_] _540_ d_lut_NAND2X1
ANAND3X1_70 [_617_ _538_ _540_] _541_ d_lut_NAND3X1
AINVX1_47 [DATA_B_26_] _542_ d_lut_INVX1
ANAND2X1_60 [sel_B_11_bF$buf1_ _542_] _543_ d_lut_NAND2X1
AOR2X2_35 [sel_B_11_bF$buf0_ DATA_B_10_] _544_ d_lut_OR2X2
ANAND3X1_71 [sel_B_10_ _544_ _543_] _545_ d_lut_NAND3X1
ANAND3X1_72 [_616_ _541_ _545_] _546_ d_lut_NAND3X1
AOR2X2_36 [sel_B_11_bF$buf4_ DATA_B_6_] _547_ d_lut_OR2X2
AINVX1_48 [DATA_B_22_] _548_ d_lut_INVX1
ANAND2X1_61 [sel_B_11_bF$buf3_ _548_] _549_ d_lut_NAND2X1
ANAND3X1_73 [_617_ _547_ _549_] _550_ d_lut_NAND3X1
AINVX1_49 [DATA_B_14_] _551_ d_lut_INVX1
ANAND2X1_62 [sel_B_11_bF$buf2_ DATA_B_30_] _552_ d_lut_NAND2X1
AOAI21X1_13 [_551_ sel_B_11_bF$buf1_ _552_] _553_ d_lut_OAI21X1
ANAND2X1_63 [sel_B_10_ _553_] _554_ d_lut_NAND2X1
ANAND3X1_74 [sel_B_9_ _550_ _554_] _555_ d_lut_NAND3X1
ANAND3X1_75 [_615_ _546_ _555_] _556_ d_lut_NAND3X1
AOR2X2_37 [sel_A_11_bF$buf3_ DATA_A_6_] _557_ d_lut_OR2X2
AINVX1_50 [DATA_A_22_] _558_ d_lut_INVX1
ANAND2X1_64 [sel_A_11_bF$buf2_ _558_] _559_ d_lut_NAND2X1
ANAND3X1_76 [_480_ _557_ _559_] _560_ d_lut_NAND3X1
AINVX1_51 [DATA_A_30_] _561_ d_lut_INVX1
ANAND2X1_65 [sel_A_11_bF$buf1_ _561_] _562_ d_lut_NAND2X1
AOR2X2_38 [sel_A_11_bF$buf0_ DATA_A_14_] _563_ d_lut_OR2X2
ANAND3X1_77 [sel_A_10_ _563_ _562_] _564_ d_lut_NAND3X1
ANAND3X1_78 [sel_A_9_ _560_ _564_] _565_ d_lut_NAND3X1
AOR2X2_39 [sel_A_11_bF$buf4_ DATA_A_2_] _566_ d_lut_OR2X2
AINVX1_52 [DATA_A_18_] _567_ d_lut_INVX1
ANAND2X1_66 [sel_A_11_bF$buf3_ _567_] _568_ d_lut_NAND2X1
ANAND3X1_79 [_480_ _566_ _568_] _569_ d_lut_NAND3X1
AINVX1_53 [DATA_A_10_] _570_ d_lut_INVX1
ANAND2X1_67 [sel_A_11_bF$buf2_ DATA_A_26_] _571_ d_lut_NAND2X1
AOAI21X1_14 [_570_ sel_A_11_bF$buf1_ _571_] _572_ d_lut_OAI21X1
ANAND2X1_68 [sel_A_10_ _572_] _573_ d_lut_NAND2X1
ANAND3X1_80 [_479_ _569_ _573_] _574_ d_lut_NAND3X1
ANAND3X1_81 [SEL_3_ _565_ _574_] _575_ d_lut_NAND3X1
AAOI21X1_7 [_556_ _575_ _614_] _478__2_ d_lut_AOI21X1
AOR2X2_40 [sel_B_11_bF$buf0_ DATA_B_3_] _576_ d_lut_OR2X2
AINVX1_54 [DATA_B_19_] _577_ d_lut_INVX1
ANAND2X1_69 [sel_B_11_bF$buf4_ _577_] _578_ d_lut_NAND2X1
ANAND3X1_82 [_617_ _576_ _578_] _579_ d_lut_NAND3X1
AINVX1_55 [DATA_B_27_] _580_ d_lut_INVX1
ANAND2X1_70 [sel_B_11_bF$buf3_ _580_] _581_ d_lut_NAND2X1
AOR2X2_41 [sel_B_11_bF$buf2_ DATA_B_11_] _582_ d_lut_OR2X2
ANAND3X1_83 [sel_B_10_ _582_ _581_] _583_ d_lut_NAND3X1
ANAND3X1_84 [_616_ _579_ _583_] _584_ d_lut_NAND3X1
AOR2X2_42 [sel_B_11_bF$buf1_ DATA_B_7_] _585_ d_lut_OR2X2
AINVX1_56 [DATA_B_23_] _586_ d_lut_INVX1
ANAND2X1_71 [sel_B_11_bF$buf0_ _586_] _587_ d_lut_NAND2X1
ANAND3X1_85 [_617_ _585_ _587_] _588_ d_lut_NAND3X1
AINVX1_57 [DATA_B_15_] _589_ d_lut_INVX1
ANAND2X1_72 [sel_B_11_bF$buf4_ DATA_B_31_] _590_ d_lut_NAND2X1
AOAI21X1_15 [_589_ sel_B_11_bF$buf3_ _590_] _591_ d_lut_OAI21X1
ANAND2X1_73 [sel_B_10_ _591_] _592_ d_lut_NAND2X1
ANAND3X1_86 [sel_B_9_ _588_ _592_] _593_ d_lut_NAND3X1
ANAND3X1_87 [_615_ _584_ _593_] _594_ d_lut_NAND3X1
AOR2X2_43 [sel_A_11_bF$buf0_ DATA_A_3_] _595_ d_lut_OR2X2
AINVX1_58 [DATA_A_19_] _596_ d_lut_INVX1
ANAND2X1_74 [sel_A_11_bF$buf4_ _596_] _597_ d_lut_NAND2X1
ANAND3X1_88 [_480_ _595_ _597_] _598_ d_lut_NAND3X1
AINVX1_59 [DATA_A_27_] _599_ d_lut_INVX1
ANAND2X1_75 [sel_A_11_bF$buf3_ _599_] _600_ d_lut_NAND2X1
AOR2X2_44 [sel_A_11_bF$buf2_ DATA_A_11_] _601_ d_lut_OR2X2
ANAND3X1_89 [sel_A_10_ _601_ _600_] _602_ d_lut_NAND3X1
ANAND3X1_90 [_479_ _598_ _602_] _603_ d_lut_NAND3X1
AOR2X2_45 [sel_A_11_bF$buf1_ DATA_A_7_] _604_ d_lut_OR2X2
AINVX1_60 [DATA_A_23_] _605_ d_lut_INVX1
ANAND2X1_76 [sel_A_11_bF$buf0_ _605_] _606_ d_lut_NAND2X1
ANAND3X1_91 [_480_ _604_ _606_] _607_ d_lut_NAND3X1
AINVX1_61 [DATA_A_15_] _608_ d_lut_INVX1
ANAND2X1_77 [sel_A_11_bF$buf4_ DATA_A_31_] _609_ d_lut_NAND2X1
AOAI21X1_16 [_608_ sel_A_11_bF$buf3_ _609_] _610_ d_lut_OAI21X1
ANAND2X1_78 [sel_A_10_ _610_] _611_ d_lut_NAND2X1
ANAND3X1_92 [sel_A_9_ _607_ _611_] _612_ d_lut_NAND3X1
ANAND3X1_93 [SEL_3_ _603_ _612_] _613_ d_lut_NAND3X1
AAOI21X1_8 [_594_ _613_ _614_] _478__3_ d_lut_AOI21X1
ADFFPOSX1_5 _478__0_ CLK NULL NULL _0__12_ NULL ddflop
ADFFPOSX1_6 _478__1_ CLK NULL NULL _0__13_ NULL ddflop
ADFFPOSX1_7 _478__2_ CLK NULL NULL _0__14_ NULL ddflop
ADFFPOSX1_8 _478__3_ CLK NULL NULL _0__15_ NULL ddflop
ABUFX2_1 [_0__0_] temp_0_ d_lut_BUFX2
ABUFX2_2 [_0__1_] temp_1_ d_lut_BUFX2
ABUFX2_3 [_0__2_] temp_2_ d_lut_BUFX2
ABUFX2_4 [_0__3_] temp_3_ d_lut_BUFX2
ABUFX2_5 [_0__4_] temp_4_ d_lut_BUFX2
ABUFX2_6 [_0__5_] temp_5_ d_lut_BUFX2
ABUFX2_7 [_0__6_] temp_6_ d_lut_BUFX2
ABUFX2_8 [_0__7_] temp_7_ d_lut_BUFX2
ABUFX2_9 [_0__8_] temp_8_ d_lut_BUFX2
ABUFX2_10 [_0__9_] temp_9_ d_lut_BUFX2
ABUFX2_11 [_0__10_] temp_10_ d_lut_BUFX2
ABUFX2_12 [_0__11_] temp_11_ d_lut_BUFX2
ABUFX2_13 [_0__12_] temp_12_ d_lut_BUFX2
ABUFX2_14 [_0__13_] temp_13_ d_lut_BUFX2
ABUFX2_15 [_0__14_] temp_14_ d_lut_BUFX2
ABUFX2_16 [_0__15_] temp_15_ d_lut_BUFX2
AINVX2_6 [RESET_L] _137_ d_lut_INVX2
AINVX2_7 [SEL_0_] _138_ d_lut_INVX2
AINVX2_8 [sel_B_0_] _139_ d_lut_INVX2
AINVX4_4 [sel_B_1_] _140_ d_lut_INVX4
AOR2X2_46 [DATA_B_0_ sel_B_2_bF$buf4_] _141_ d_lut_OR2X2
AINVX1_62 [DATA_B_16_] _142_ d_lut_INVX1
ANAND2X1_79 [sel_B_2_bF$buf3_ _142_] _143_ d_lut_NAND2X1
ANAND3X1_94 [_140_ _141_ _143_] _144_ d_lut_NAND3X1
AINVX1_63 [DATA_B_24_] _145_ d_lut_INVX1
ANAND2X1_80 [sel_B_2_bF$buf2_ _145_] _146_ d_lut_NAND2X1
AOR2X2_47 [sel_B_2_bF$buf1_ DATA_B_8_] _147_ d_lut_OR2X2
ANAND3X1_95 [sel_B_1_ _147_ _146_] _148_ d_lut_NAND3X1
ANAND3X1_96 [_139_ _144_ _148_] _149_ d_lut_NAND3X1
AOR2X2_48 [sel_B_2_bF$buf0_ DATA_B_4_] _150_ d_lut_OR2X2
AINVX1_64 [DATA_B_20_] _151_ d_lut_INVX1
ANAND2X1_81 [sel_B_2_bF$buf4_ _151_] _152_ d_lut_NAND2X1
ANAND3X1_97 [_140_ _150_ _152_] _153_ d_lut_NAND3X1
AINVX1_65 [DATA_B_12_] _154_ d_lut_INVX1
ANAND2X1_82 [sel_B_2_bF$buf3_ DATA_B_28_] _155_ d_lut_NAND2X1
AOAI21X1_17 [_154_ sel_B_2_bF$buf2_ _155_] _156_ d_lut_OAI21X1
ANAND2X1_83 [sel_B_1_ _156_] _157_ d_lut_NAND2X1
ANAND3X1_98 [sel_B_0_ _153_ _157_] _158_ d_lut_NAND3X1
ANAND3X1_99 [_138_ _149_ _158_] _159_ d_lut_NAND3X1
AINVX2_9 [sel_A_0_] _2_ d_lut_INVX2
AINVX4_5 [sel_A_1_] _3_ d_lut_INVX4
AOR2X2_49 [DATA_A_0_ sel_A_2_bF$buf4_] _4_ d_lut_OR2X2
AINVX1_66 [DATA_A_16_] _5_ d_lut_INVX1
ANAND2X1_84 [sel_A_2_bF$buf3_ _5_] _6_ d_lut_NAND2X1
ANAND3X1_100 [_3_ _4_ _6_] _7_ d_lut_NAND3X1
AINVX1_67 [DATA_A_24_] _8_ d_lut_INVX1
ANAND2X1_85 [sel_A_2_bF$buf2_ _8_] _9_ d_lut_NAND2X1
AOR2X2_50 [sel_A_2_bF$buf1_ DATA_A_8_] _10_ d_lut_OR2X2
ANAND3X1_101 [sel_A_1_ _10_ _9_] _11_ d_lut_NAND3X1
ANAND3X1_102 [_2_ _7_ _11_] _12_ d_lut_NAND3X1
AOR2X2_51 [sel_A_2_bF$buf0_ DATA_A_4_] _13_ d_lut_OR2X2
AINVX1_68 [DATA_A_20_] _14_ d_lut_INVX1
ANAND2X1_86 [sel_A_2_bF$buf4_ _14_] _15_ d_lut_NAND2X1
ANAND3X1_103 [_3_ _13_ _15_] _16_ d_lut_NAND3X1
AINVX1_69 [DATA_A_12_] _17_ d_lut_INVX1
ANAND2X1_87 [sel_A_2_bF$buf3_ DATA_A_28_] _18_ d_lut_NAND2X1
AOAI21X1_18 [_17_ sel_A_2_bF$buf2_ _18_] _19_ d_lut_OAI21X1
ANAND2X1_88 [sel_A_1_ _19_] _20_ d_lut_NAND2X1
ANAND3X1_104 [sel_A_0_ _16_ _20_] _21_ d_lut_NAND3X1
ANAND3X1_105 [SEL_0_ _12_ _21_] _22_ d_lut_NAND3X1
AAOI21X1_9 [_159_ _22_ _137_] _1__0_ d_lut_AOI21X1
AOR2X2_52 [sel_B_2_bF$buf1_ DATA_B_1_] _23_ d_lut_OR2X2
AINVX1_70 [DATA_B_17_] _24_ d_lut_INVX1
ANAND2X1_89 [sel_B_2_bF$buf0_ _24_] _25_ d_lut_NAND2X1
ANAND3X1_106 [_140_ _23_ _25_] _26_ d_lut_NAND3X1
AINVX1_71 [DATA_B_25_] _27_ d_lut_INVX1
ANAND2X1_90 [sel_B_2_bF$buf4_ _27_] _28_ d_lut_NAND2X1
AOR2X2_53 [sel_B_2_bF$buf3_ DATA_B_9_] _29_ d_lut_OR2X2
ANAND3X1_107 [sel_B_1_ _29_ _28_] _30_ d_lut_NAND3X1
ANAND3X1_108 [_139_ _26_ _30_] _31_ d_lut_NAND3X1
AOR2X2_54 [sel_B_2_bF$buf2_ DATA_B_5_] _32_ d_lut_OR2X2
AINVX1_72 [DATA_B_21_] _33_ d_lut_INVX1
ANAND2X1_91 [sel_B_2_bF$buf1_ _33_] _34_ d_lut_NAND2X1
ANAND3X1_109 [_140_ _32_ _34_] _35_ d_lut_NAND3X1
AINVX1_73 [DATA_B_13_] _36_ d_lut_INVX1
ANAND2X1_92 [sel_B_2_bF$buf0_ DATA_B_29_] _37_ d_lut_NAND2X1
AOAI21X1_19 [_36_ sel_B_2_bF$buf4_ _37_] _38_ d_lut_OAI21X1
ANAND2X1_93 [sel_B_1_ _38_] _39_ d_lut_NAND2X1
ANAND3X1_110 [sel_B_0_ _35_ _39_] _40_ d_lut_NAND3X1
ANAND3X1_111 [_138_ _31_ _40_] _41_ d_lut_NAND3X1
AOR2X2_55 [sel_A_2_bF$buf1_ DATA_A_1_] _42_ d_lut_OR2X2
AINVX1_74 [DATA_A_17_] _43_ d_lut_INVX1
ANAND2X1_94 [sel_A_2_bF$buf0_ _43_] _44_ d_lut_NAND2X1
ANAND3X1_112 [_3_ _42_ _44_] _45_ d_lut_NAND3X1
AINVX1_75 [DATA_A_25_] _46_ d_lut_INVX1
ANAND2X1_95 [sel_A_2_bF$buf4_ _46_] _47_ d_lut_NAND2X1
AOR2X2_56 [sel_A_2_bF$buf3_ DATA_A_9_] _48_ d_lut_OR2X2
ANAND3X1_113 [sel_A_1_ _48_ _47_] _49_ d_lut_NAND3X1
ANAND3X1_114 [_2_ _45_ _49_] _50_ d_lut_NAND3X1
AOR2X2_57 [sel_A_2_bF$buf2_ DATA_A_5_] _51_ d_lut_OR2X2
AINVX1_76 [DATA_A_21_] _52_ d_lut_INVX1
ANAND2X1_96 [sel_A_2_bF$buf1_ _52_] _53_ d_lut_NAND2X1
ANAND3X1_115 [_3_ _51_ _53_] _54_ d_lut_NAND3X1
AINVX1_77 [DATA_A_13_] _55_ d_lut_INVX1
ANAND2X1_97 [sel_A_2_bF$buf0_ DATA_A_29_] _56_ d_lut_NAND2X1
AOAI21X1_20 [_55_ sel_A_2_bF$buf4_ _56_] _57_ d_lut_OAI21X1
ANAND2X1_98 [sel_A_1_ _57_] _58_ d_lut_NAND2X1
ANAND3X1_116 [sel_A_0_ _54_ _58_] _59_ d_lut_NAND3X1
ANAND3X1_117 [SEL_0_ _50_ _59_] _60_ d_lut_NAND3X1
AAOI21X1_10 [_41_ _60_ _137_] _1__1_ d_lut_AOI21X1
AOR2X2_58 [sel_B_2_bF$buf3_ DATA_B_2_] _61_ d_lut_OR2X2
AINVX1_78 [DATA_B_18_] _62_ d_lut_INVX1
ANAND2X1_99 [sel_B_2_bF$buf2_ _62_] _63_ d_lut_NAND2X1
ANAND3X1_118 [_140_ _61_ _63_] _64_ d_lut_NAND3X1
AINVX1_79 [DATA_B_26_] _65_ d_lut_INVX1
ANAND2X1_100 [sel_B_2_bF$buf1_ _65_] _66_ d_lut_NAND2X1
AOR2X2_59 [sel_B_2_bF$buf0_ DATA_B_10_] _67_ d_lut_OR2X2
ANAND3X1_119 [sel_B_1_ _67_ _66_] _68_ d_lut_NAND3X1
ANAND3X1_120 [_139_ _64_ _68_] _69_ d_lut_NAND3X1
AOR2X2_60 [sel_B_2_bF$buf4_ DATA_B_6_] _70_ d_lut_OR2X2
AINVX1_80 [DATA_B_22_] _71_ d_lut_INVX1
ANAND2X1_101 [sel_B_2_bF$buf3_ _71_] _72_ d_lut_NAND2X1
ANAND3X1_121 [_140_ _70_ _72_] _73_ d_lut_NAND3X1
AINVX1_81 [DATA_B_14_] _74_ d_lut_INVX1
ANAND2X1_102 [sel_B_2_bF$buf2_ DATA_B_30_] _75_ d_lut_NAND2X1
AOAI21X1_21 [_74_ sel_B_2_bF$buf1_ _75_] _76_ d_lut_OAI21X1
ANAND2X1_103 [sel_B_1_ _76_] _77_ d_lut_NAND2X1
ANAND3X1_122 [sel_B_0_ _73_ _77_] _78_ d_lut_NAND3X1
ANAND3X1_123 [_138_ _69_ _78_] _79_ d_lut_NAND3X1
AOR2X2_61 [sel_A_2_bF$buf3_ DATA_A_6_] _80_ d_lut_OR2X2
AINVX1_82 [DATA_A_22_] _81_ d_lut_INVX1
ANAND2X1_104 [sel_A_2_bF$buf2_ _81_] _82_ d_lut_NAND2X1
ANAND3X1_124 [_3_ _80_ _82_] _83_ d_lut_NAND3X1
AINVX1_83 [DATA_A_30_] _84_ d_lut_INVX1
ANAND2X1_105 [sel_A_2_bF$buf1_ _84_] _85_ d_lut_NAND2X1
AOR2X2_62 [sel_A_2_bF$buf0_ DATA_A_14_] _86_ d_lut_OR2X2
ANAND3X1_125 [sel_A_1_ _86_ _85_] _87_ d_lut_NAND3X1
ANAND3X1_126 [sel_A_0_ _83_ _87_] _88_ d_lut_NAND3X1
AOR2X2_63 [sel_A_2_bF$buf4_ DATA_A_2_] _89_ d_lut_OR2X2
AINVX1_84 [DATA_A_18_] _90_ d_lut_INVX1
ANAND2X1_106 [sel_A_2_bF$buf3_ _90_] _91_ d_lut_NAND2X1
ANAND3X1_127 [_3_ _89_ _91_] _92_ d_lut_NAND3X1
AINVX1_85 [DATA_A_10_] _93_ d_lut_INVX1
ANAND2X1_107 [sel_A_2_bF$buf2_ DATA_A_26_] _94_ d_lut_NAND2X1
AOAI21X1_22 [_93_ sel_A_2_bF$buf1_ _94_] _95_ d_lut_OAI21X1
ANAND2X1_108 [sel_A_1_ _95_] _96_ d_lut_NAND2X1
ANAND3X1_128 [_2_ _92_ _96_] _97_ d_lut_NAND3X1
ANAND3X1_129 [SEL_0_ _88_ _97_] _98_ d_lut_NAND3X1
AAOI21X1_11 [_79_ _98_ _137_] _1__2_ d_lut_AOI21X1
AOR2X2_64 [sel_B_2_bF$buf0_ DATA_B_3_] _99_ d_lut_OR2X2
AINVX1_86 [DATA_B_19_] _100_ d_lut_INVX1
ANAND2X1_109 [sel_B_2_bF$buf4_ _100_] _101_ d_lut_NAND2X1
ANAND3X1_130 [_140_ _99_ _101_] _102_ d_lut_NAND3X1
AINVX1_87 [DATA_B_27_] _103_ d_lut_INVX1
ANAND2X1_110 [sel_B_2_bF$buf3_ _103_] _104_ d_lut_NAND2X1
AOR2X2_65 [sel_B_2_bF$buf2_ DATA_B_11_] _105_ d_lut_OR2X2
ANAND3X1_131 [sel_B_1_ _105_ _104_] _106_ d_lut_NAND3X1
ANAND3X1_132 [_139_ _102_ _106_] _107_ d_lut_NAND3X1
AOR2X2_66 [sel_B_2_bF$buf1_ DATA_B_7_] _108_ d_lut_OR2X2
AINVX1_88 [DATA_B_23_] _109_ d_lut_INVX1
ANAND2X1_111 [sel_B_2_bF$buf0_ _109_] _110_ d_lut_NAND2X1
ANAND3X1_133 [_140_ _108_ _110_] _111_ d_lut_NAND3X1
AINVX1_89 [DATA_B_15_] _112_ d_lut_INVX1
ANAND2X1_112 [sel_B_2_bF$buf4_ DATA_B_31_] _113_ d_lut_NAND2X1
AOAI21X1_23 [_112_ sel_B_2_bF$buf3_ _113_] _114_ d_lut_OAI21X1
ANAND2X1_113 [sel_B_1_ _114_] _115_ d_lut_NAND2X1
ANAND3X1_134 [sel_B_0_ _111_ _115_] _116_ d_lut_NAND3X1
ANAND3X1_135 [_138_ _107_ _116_] _117_ d_lut_NAND3X1
AOR2X2_67 [sel_A_2_bF$buf0_ DATA_A_3_] _118_ d_lut_OR2X2
AINVX1_90 [DATA_A_19_] _119_ d_lut_INVX1
ANAND2X1_114 [sel_A_2_bF$buf4_ _119_] _120_ d_lut_NAND2X1
ANAND3X1_136 [_3_ _118_ _120_] _121_ d_lut_NAND3X1
AINVX1_91 [DATA_A_27_] _122_ d_lut_INVX1
ANAND2X1_115 [sel_A_2_bF$buf3_ _122_] _123_ d_lut_NAND2X1
AOR2X2_68 [sel_A_2_bF$buf2_ DATA_A_11_] _124_ d_lut_OR2X2
ANAND3X1_137 [sel_A_1_ _124_ _123_] _125_ d_lut_NAND3X1
ANAND3X1_138 [_2_ _121_ _125_] _126_ d_lut_NAND3X1
AOR2X2_69 [sel_A_2_bF$buf1_ DATA_A_7_] _127_ d_lut_OR2X2
AINVX1_92 [DATA_A_23_] _128_ d_lut_INVX1
ANAND2X1_116 [sel_A_2_bF$buf0_ _128_] _129_ d_lut_NAND2X1
ANAND3X1_139 [_3_ _127_ _129_] _130_ d_lut_NAND3X1
AINVX1_93 [DATA_A_15_] _131_ d_lut_INVX1
ANAND2X1_117 [sel_A_2_bF$buf4_ DATA_A_31_] _132_ d_lut_NAND2X1
AOAI21X1_24 [_131_ sel_A_2_bF$buf3_ _132_] _133_ d_lut_OAI21X1
ANAND2X1_118 [sel_A_1_ _133_] _134_ d_lut_NAND2X1
ANAND3X1_140 [sel_A_0_ _130_ _134_] _135_ d_lut_NAND3X1
ANAND3X1_141 [SEL_0_ _126_ _135_] _136_ d_lut_NAND3X1
AAOI21X1_12 [_117_ _136_ _137_] _1__3_ d_lut_AOI21X1
ADFFPOSX1_9 _1__0_ CLK NULL NULL _0__0_ NULL ddflop
ADFFPOSX1_10 _1__1_ CLK NULL NULL _0__1_ NULL ddflop
ADFFPOSX1_11 _1__2_ CLK NULL NULL _0__2_ NULL ddflop
ADFFPOSX1_12 _1__3_ CLK NULL NULL _0__3_ NULL ddflop
AINVX2_10 [RESET_L] _296_ d_lut_INVX2
AINVX2_11 [SEL_1_] _297_ d_lut_INVX2
AINVX2_12 [sel_B_3_] _298_ d_lut_INVX2
AINVX4_6 [sel_B_4_] _299_ d_lut_INVX4
AOR2X2_70 [DATA_B_0_ sel_B_5_bF$buf4_] _300_ d_lut_OR2X2
AINVX1_94 [DATA_B_16_] _301_ d_lut_INVX1
ANAND2X1_119 [sel_B_5_bF$buf3_ _301_] _302_ d_lut_NAND2X1
ANAND3X1_142 [_299_ _300_ _302_] _303_ d_lut_NAND3X1
AINVX1_95 [DATA_B_24_] _304_ d_lut_INVX1
ANAND2X1_120 [sel_B_5_bF$buf2_ _304_] _305_ d_lut_NAND2X1
AOR2X2_71 [sel_B_5_bF$buf1_ DATA_B_8_] _306_ d_lut_OR2X2
ANAND3X1_143 [sel_B_4_ _306_ _305_] _307_ d_lut_NAND3X1
ANAND3X1_144 [_298_ _303_ _307_] _308_ d_lut_NAND3X1
AOR2X2_72 [sel_B_5_bF$buf0_ DATA_B_4_] _309_ d_lut_OR2X2
AINVX1_96 [DATA_B_20_] _310_ d_lut_INVX1
ANAND2X1_121 [sel_B_5_bF$buf4_ _310_] _311_ d_lut_NAND2X1