*SPICE netlist created from verilog structural netlist module selector4 by vlog2Spice (qflow)
*This file may contain array delimiters, not for use in simulation.

** Start of included library /usr/local/share/qflow/tech/osu018/osu018_stdcells.sp

.subckt AND2X1 Y B vdd gnd A
M0 a_2_6# A vdd vdd pfet w=2u l=0.2u
+ ad=0p pd=0u as=0p ps=0u 
M1 vdd B a_2_6# vdd pfet w=2u l=0.2u
+ ad=0p pd=0u as=0p ps=0u 
M2 Y a_2_6# vdd vdd pfet w=2u l=0.2u
+ ad=0p pd=0u as=0p ps=0u 
M3 a_9_6# A a_2_6# Gnd nfet w=2u l=0.2u
+ ad=0p pd=0u as=0p ps=0u 
M4 gnd B a_9_6# Gnd nfet w=2u l=0.2u
+ ad=0p pd=0u as=0p ps=0u 
M5 Y a_2_6# gnd Gnd nfet w=1u l=0.2u
+ ad=0p pd=0u as=0p ps=0u 
.ends AND2X1

.subckt AND2X2 vdd gnd A B Y
M0 a_2_6# A vdd vdd pfet w=2u l=0.2u
+ ad=0p pd=0u as=0p ps=0u 
M1 vdd B a_2_6# vdd pfet w=2u l=0.2u
+ ad=0p pd=0u as=0p ps=0u 
M2 Y a_2_6# vdd vdd pfet w=4u l=0.2u
+ ad=0p pd=0u as=0p ps=0u 
M3 a_9_6# A a_2_6# Gnd nfet w=2u l=0.2u
+ ad=0p pd=0u as=0p ps=0u 
M4 gnd B a_9_6# Gnd nfet w=2u l=0.2u
+ ad=0p pd=0u as=0p ps=0u 
M5 Y a_2_6# gnd Gnd nfet w=2u l=0.2u
+ ad=0p pd=0u as=0p ps=0u 
.ends AND2X2

.subckt AOI21X1 gnd vdd A B Y C
M0 vdd A a_2_54# vdd pfet w=4u l=0.2u
+ ad=0p pd=0u as=0p ps=0u 
M1 a_2_54# B vdd vdd pfet w=4u l=0.2u
+ ad=0p pd=0u as=0p ps=0u 
M2 Y C a_2_54# vdd pfet w=4u l=0.2u
+ ad=0p pd=0u as=0p ps=0u 
M3 a_12_6# A gnd Gnd nfet w=2u l=0.2u
+ ad=0p pd=0u as=0p ps=0u 
M4 Y B a_12_6# Gnd nfet w=2u l=0.2u
+ ad=0p pd=0u as=0p ps=0u 
M5 gnd C Y Gnd nfet w=1u l=0.2u
+ ad=0p pd=0u as=0p ps=0u 
.ends AOI21X1

.subckt AOI22X1 gnd vdd C D Y A B
M0 vdd A a_2_54# vdd pfet w=4u l=0.2u
+ ad=0p pd=0u as=0p ps=0u 
M1 a_2_54# B vdd vdd pfet w=4u l=0.2u
+ ad=0p pd=0u as=0p ps=0u 
M2 Y D a_2_54# vdd pfet w=4u l=0.2u
+ ad=0p pd=0u as=0p ps=0u 
M3 a_2_54# C Y vdd pfet w=4u l=0.2u
+ ad=0p pd=0u as=0p ps=0u 
M4 a_11_6# A gnd Gnd nfet w=2u l=0.2u
+ ad=0p pd=0u as=0p ps=0u 
M5 Y B a_11_6# Gnd nfet w=2u l=0.2u
+ ad=0p pd=0u as=0p ps=0u 
M6 a_28_6# D Y Gnd nfet w=2u l=0.2u
+ ad=0p pd=0u as=0p ps=0u 
M7 gnd C a_28_6# Gnd nfet w=2u l=0.2u
+ ad=0p pd=0u as=0p ps=0u 
.ends AOI22X1

.subckt BUFX2 vdd gnd A Y
M0 vdd A a_2_6# vdd pfet w=2u l=0.2u
+ ad=0p pd=0u as=0p ps=0u 
M1 Y a_2_6# vdd vdd pfet w=4u l=0.2u
+ ad=0p pd=0u as=0p ps=0u 
M2 gnd A a_2_6# Gnd nfet w=1u l=0.2u
+ ad=0p pd=0u as=0p ps=0u 
M3 Y a_2_6# gnd Gnd nfet w=2u l=0.2u
+ ad=0p pd=0u as=0p ps=0u 
.ends BUFX2

.subckt BUFX4 vdd gnd A Y
M0 vdd A a_2_6# vdd pfet w=3u l=0.2u
+ ad=0p pd=0u as=0p ps=0u 
M1 Y a_2_6# vdd vdd pfet w=4u l=0.2u
+ ad=0p pd=0u as=0p ps=0u 
M2 vdd a_2_6# Y vdd pfet w=4u l=0.2u
+ ad=0p pd=0u as=0p ps=0u 
M3 gnd A a_2_6# Gnd nfet w=1.5u l=0.2u
+ ad=0p pd=0u as=0p ps=0u 
M4 Y a_2_6# gnd Gnd nfet w=2u l=0.2u
+ ad=0p pd=0u as=0p ps=0u 
M5 gnd a_2_6# Y Gnd nfet w=2u l=0.2u
+ ad=0p pd=0u as=0p ps=0u 
.ends BUFX4

.subckt CLKBUF1 A vdd gnd Y
M0 a_9_6# A vdd vdd pfet w=4u l=0.2u
+ ad=0p pd=0u as=0p ps=0u 
M1 vdd A a_9_6# vdd pfet w=4u l=0.2u
+ ad=0p pd=0u as=0p ps=0u 
M2 a_25_6# a_9_6# vdd vdd pfet w=4u l=0.2u
+ ad=0p pd=0u as=0p ps=0u 
M3 vdd a_9_6# a_25_6# vdd pfet w=4u l=0.2u
+ ad=0p pd=0u as=0p ps=0u 
M4 a_41_6# a_25_6# vdd vdd pfet w=4u l=0.2u
+ ad=0p pd=0u as=0p ps=0u 
M5 vdd a_25_6# a_41_6# vdd pfet w=4u l=0.2u
+ ad=0p pd=0u as=0p ps=0u 
M6 Y a_41_6# vdd vdd pfet w=4u l=0.2u
+ ad=0p pd=0u as=0p ps=0u 
M7 vdd a_41_6# Y vdd pfet w=4u l=0.2u
+ ad=0p pd=0u as=0p ps=0u 
M8 a_9_6# A gnd Gnd nfet w=2u l=0.2u
+ ad=0p pd=0u as=0p ps=0u 
M9 gnd A a_9_6# Gnd nfet w=2u l=0.2u
+ ad=0p pd=0u as=0p ps=0u 
M10 a_25_6# a_9_6# gnd Gnd nfet w=2u l=0.2u
+ ad=0p pd=0u as=0p ps=0u 
M11 gnd a_9_6# a_25_6# Gnd nfet w=2u l=0.2u
+ ad=0p pd=0u as=0p ps=0u 
M12 a_41_6# a_25_6# gnd Gnd nfet w=2u l=0.2u
+ ad=0p pd=0u as=0p ps=0u 
M13 gnd a_25_6# a_41_6# Gnd nfet w=2u l=0.2u
+ ad=0p pd=0u as=0p ps=0u 
M14 Y a_41_6# gnd Gnd nfet w=2u l=0.2u
+ ad=0p pd=0u as=0p ps=0u 
M15 gnd a_41_6# Y Gnd nfet w=2u l=0.2u
+ ad=0p pd=0u as=0p ps=0u 
.ends CLKBUF1

.subckt CLKBUF2 vdd gnd A Y
M0 a_9_6# A vdd vdd pfet w=4u l=0.2u
+ ad=0p pd=0u as=0p ps=0u 
M1 vdd A a_9_6# vdd pfet w=4u l=0.2u
+ ad=0p pd=0u as=0p ps=0u 
M2 a_25_6# a_9_6# vdd vdd pfet w=4u l=0.2u
+ ad=0p pd=0u as=0p ps=0u 
M3 vdd a_9_6# a_25_6# vdd pfet w=4u l=0.2u
+ ad=0p pd=0u as=0p ps=0u 
M4 a_41_6# a_25_6# vdd vdd pfet w=4u l=0.2u
+ ad=0p pd=0u as=0p ps=0u 
M5 vdd a_25_6# a_41_6# vdd pfet w=4u l=0.2u
+ ad=0p pd=0u as=0p ps=0u 
M6 a_57_6# a_41_6# vdd vdd pfet w=4u l=0.2u
+ ad=0p pd=0u as=0p ps=0u 
M7 vdd a_41_6# a_57_6# vdd pfet w=4u l=0.2u
+ ad=0p pd=0u as=0p ps=0u 
M8 a_73_6# a_57_6# vdd vdd pfet w=4u l=0.2u
+ ad=0p pd=0u as=0p ps=0u 
M9 vdd a_57_6# a_73_6# vdd pfet w=4u l=0.2u
+ ad=0p pd=0u as=0p ps=0u 
M10 Y a_73_6# vdd vdd pfet w=4u l=0.2u
+ ad=0p pd=0u as=0p ps=0u 
M11 vdd a_73_6# Y vdd pfet w=4u l=0.2u
+ ad=0p pd=0u as=0p ps=0u 
M12 a_9_6# A gnd Gnd nfet w=2u l=0.2u
+ ad=0p pd=0u as=0p ps=0u 
M13 gnd A a_9_6# Gnd nfet w=2u l=0.2u
+ ad=0p pd=0u as=0p ps=0u 
M14 a_25_6# a_9_6# gnd Gnd nfet w=2u l=0.2u
+ ad=0p pd=0u as=0p ps=0u 
M15 gnd a_9_6# a_25_6# Gnd nfet w=2u l=0.2u
+ ad=0p pd=0u as=0p ps=0u 
M16 a_41_6# a_25_6# gnd Gnd nfet w=2u l=0.2u
+ ad=0p pd=0u as=0p ps=0u 
M17 gnd a_25_6# a_41_6# Gnd nfet w=2u l=0.2u
+ ad=0p pd=0u as=0p ps=0u 
M18 a_57_6# a_41_6# gnd Gnd nfet w=2u l=0.2u
+ ad=0p pd=0u as=0p ps=0u 
M19 gnd a_41_6# a_57_6# Gnd nfet w=2u l=0.2u
+ ad=0p pd=0u as=0p ps=0u 
M20 a_73_6# a_57_6# gnd Gnd nfet w=2u l=0.2u
+ ad=0p pd=0u as=0p ps=0u 
M21 gnd a_57_6# a_73_6# Gnd nfet w=2u l=0.2u
+ ad=0p pd=0u as=0p ps=0u 
M22 Y a_73_6# gnd Gnd nfet w=2u l=0.2u
+ ad=0p pd=0u as=0p ps=0u 
M23 gnd a_73_6# Y Gnd nfet w=2u l=0.2u
+ ad=0p pd=0u as=0p ps=0u 
.ends CLKBUF2

.subckt CLKBUF3 gnd vdd A Y
M0 a_9_6# A vdd vdd pfet w=4u l=0.2u
+ ad=0p pd=0u as=0p ps=0u 
M1 vdd A a_9_6# vdd pfet w=4u l=0.2u
+ ad=0p pd=0u as=0p ps=0u 
M2 a_25_6# a_9_6# vdd vdd pfet w=4u l=0.2u
+ ad=0p pd=0u as=0p ps=0u 
M3 vdd a_9_6# a_25_6# vdd pfet w=4u l=0.2u
+ ad=0p pd=0u as=0p ps=0u 
M4 a_41_6# a_25_6# vdd vdd pfet w=4u l=0.2u
+ ad=0p pd=0u as=0p ps=0u 
M5 vdd a_25_6# a_41_6# vdd pfet w=4u l=0.2u
+ ad=0p pd=0u as=0p ps=0u 
M6 a_57_6# a_41_6# vdd vdd pfet w=4u l=0.2u
+ ad=0p pd=0u as=0p ps=0u 
M7 vdd a_41_6# a_57_6# vdd pfet w=4u l=0.2u
+ ad=0p pd=0u as=0p ps=0u 
M8 a_73_6# a_57_6# vdd vdd pfet w=4u l=0.2u
+ ad=0p pd=0u as=0p ps=0u 
M9 vdd a_57_6# a_73_6# vdd pfet w=4u l=0.2u
+ ad=0p pd=0u as=0p ps=0u 
M10 a_89_6# a_73_6# vdd vdd pfet w=4u l=0.2u
+ ad=0p pd=0u as=0p ps=0u 
M11 vdd a_73_6# a_89_6# vdd pfet w=4u l=0.2u
+ ad=0p pd=0u as=0p ps=0u 
M12 a_105_6# a_89_6# vdd vdd pfet w=4u l=0.2u
+ ad=0p pd=0u as=0p ps=0u 
M13 vdd a_89_6# a_105_6# vdd pfet w=4u l=0.2u
+ ad=0p pd=0u as=0p ps=0u 
M14 Y a_105_6# vdd vdd pfet w=4u l=0.2u
+ ad=0p pd=0u as=0p ps=0u 
M15 vdd a_105_6# Y vdd pfet w=4u l=0.2u
+ ad=0p pd=0u as=0p ps=0u 
M16 a_9_6# A gnd Gnd nfet w=2u l=0.2u
+ ad=0p pd=0u as=0p ps=0u 
M17 gnd A a_9_6# Gnd nfet w=2u l=0.2u
+ ad=0p pd=0u as=0p ps=0u 
M18 a_25_6# a_9_6# gnd Gnd nfet w=2u l=0.2u
+ ad=0p pd=0u as=0p ps=0u 
M19 gnd a_9_6# a_25_6# Gnd nfet w=2u l=0.2u
+ ad=0p pd=0u as=0p ps=0u 
M20 a_41_6# a_25_6# gnd Gnd nfet w=2u l=0.2u
+ ad=0p pd=0u as=0p ps=0u 
M21 gnd a_25_6# a_41_6# Gnd nfet w=2u l=0.2u
+ ad=0p pd=0u as=0p ps=0u 
M22 a_57_6# a_41_6# gnd Gnd nfet w=2u l=0.2u
+ ad=0p pd=0u as=0p ps=0u 
M23 gnd a_41_6# a_57_6# Gnd nfet w=2u l=0.2u
+ ad=0p pd=0u as=0p ps=0u 
M24 a_73_6# a_57_6# gnd Gnd nfet w=2u l=0.2u
+ ad=0p pd=0u as=0p ps=0u 
M25 gnd a_57_6# a_73_6# Gnd nfet w=2u l=0.2u
+ ad=0p pd=0u as=0p ps=0u 
M26 a_89_6# a_73_6# gnd Gnd nfet w=2u l=0.2u
+ ad=0p pd=0u as=0p ps=0u 
M27 gnd a_73_6# a_89_6# Gnd nfet w=2u l=0.2u
+ ad=0p pd=0u as=0p ps=0u 
M28 a_105_6# a_89_6# gnd Gnd nfet w=2u l=0.2u
+ ad=0p pd=0u as=0p ps=0u 
M29 gnd a_89_6# a_105_6# Gnd nfet w=2u l=0.2u
+ ad=0p pd=0u as=0p ps=0u 
M30 Y a_105_6# gnd Gnd nfet w=2u l=0.2u
+ ad=0p pd=0u as=0p ps=0u 
M31 gnd a_105_6# Y Gnd nfet w=2u l=0.2u
+ ad=0p pd=0u as=0p ps=0u 
.ends CLKBUF3

.subckt DFFNEGX1 CLK vdd D gnd Q
M0 vdd CLK a_2_6# vdd pfet w=4u l=0.2u
+ ad=0p pd=0u as=0p ps=0u 
M1 a_17_74# D vdd vdd pfet w=2u l=0.2u
+ ad=0p pd=0u as=0p ps=0u 
M2 a_23_6# a_2_6# a_17_74# vdd pfet w=2u l=0.2u
+ ad=0p pd=0u as=0p ps=0u 
M3 a_31_74# CLK a_23_6# vdd pfet w=2u l=0.2u
+ ad=0p pd=0u as=0p ps=0u 
M4 vdd a_34_4# a_31_74# vdd pfet w=2u l=0.2u
+ ad=0p pd=0u as=0p ps=0u 
M5 a_34_4# a_23_6# vdd vdd pfet w=2u l=0.2u
+ ad=0p pd=0u as=0p ps=0u 
M6 a_61_74# a_34_4# vdd vdd pfet w=2u l=0.2u
+ ad=0p pd=0u as=0p ps=0u 
M7 a_66_6# CLK a_61_74# vdd pfet w=2u l=0.2u
+ ad=0p pd=0u as=0p ps=0u 
M8 a_76_84# a_2_6# a_66_6# vdd pfet w=1u l=0.2u
+ ad=0p pd=0u as=0p ps=0u 
M9 vdd Q a_76_84# vdd pfet w=1u l=0.2u
+ ad=0p pd=0u as=0p ps=0u 
M10 gnd CLK a_2_6# Gnd nfet w=2u l=0.2u
+ ad=0p pd=0u as=0p ps=0u 
M11 Q a_66_6# vdd vdd pfet w=4u l=0.2u
+ ad=0p pd=0u as=0p ps=0u 
M12 a_17_6# D gnd Gnd nfet w=1u l=0.2u
+ ad=0p pd=0u as=0p ps=0u 
M13 a_23_6# CLK a_17_6# Gnd nfet w=1u l=0.2u
+ ad=0p pd=0u as=0p ps=0u 
M14 a_31_6# a_2_6# a_23_6# Gnd nfet w=1u l=0.2u
+ ad=0p pd=0u as=0p ps=0u 
M15 gnd a_34_4# a_31_6# Gnd nfet w=1u l=0.2u
+ ad=0p pd=0u as=0p ps=0u 
M16 a_34_4# a_23_6# gnd Gnd nfet w=1u l=0.2u
+ ad=0p pd=0u as=0p ps=0u 
M17 a_61_6# a_34_4# gnd Gnd nfet w=1u l=0.2u
+ ad=0p pd=0u as=0p ps=0u 
M18 a_66_6# a_2_6# a_61_6# Gnd nfet w=1u l=0.2u
+ ad=0p pd=0u as=0p ps=0u 
M19 a_76_6# CLK a_66_6# Gnd nfet w=1u l=0.2u
+ ad=0p pd=0u as=0p ps=0u 
M20 gnd Q a_76_6# Gnd nfet w=1u l=0.2u
+ ad=0p pd=0u as=0p ps=0u 
M21 Q a_66_6# gnd Gnd nfet w=2u l=0.2u
+ ad=0p pd=0u as=0p ps=0u 
.ends DFFNEGX1

.subckt DFFPOSX1 vdd D gnd Q CLK
M0 vdd CLK a_2_6# vdd pfet w=4u l=0.2u
+ ad=0p pd=0u as=0p ps=0u 
M1 a_17_74# D vdd vdd pfet w=2u l=0.2u
+ ad=0p pd=0u as=0p ps=0u 
M2 a_22_6# CLK a_17_74# vdd pfet w=2u l=0.2u
+ ad=0p pd=0u as=0p ps=0u 
M3 a_31_74# a_2_6# a_22_6# vdd pfet w=2u l=0.2u
+ ad=0p pd=0u as=0p ps=0u 
M4 vdd a_34_4# a_31_74# vdd pfet w=2u l=0.2u
+ ad=0p pd=0u as=0p ps=0u 
M5 a_34_4# a_22_6# vdd vdd pfet w=2u l=0.2u
+ ad=0p pd=0u as=0p ps=0u 
M6 a_61_74# a_34_4# vdd vdd pfet w=2u l=0.2u
+ ad=0p pd=0u as=0p ps=0u 
M7 a_66_6# a_2_6# a_61_74# vdd pfet w=2u l=0.2u
+ ad=0p pd=0u as=0p ps=0u 
M8 a_76_84# CLK a_66_6# vdd pfet w=1u l=0.2u
+ ad=0p pd=0u as=0p ps=0u 
M9 vdd Q a_76_84# vdd pfet w=1u l=0.2u
+ ad=0p pd=0u as=0p ps=0u 
M10 gnd CLK a_2_6# Gnd nfet w=2u l=0.2u
+ ad=0p pd=0u as=0p ps=0u 
M11 Q a_66_6# vdd vdd pfet w=4u l=0.2u
+ ad=0p pd=0u as=0p ps=0u 
M12 a_17_6# D gnd Gnd nfet w=1u l=0.2u
+ ad=0p pd=0u as=0p ps=0u 
M13 a_22_6# a_2_6# a_17_6# Gnd nfet w=1u l=0.2u
+ ad=0p pd=0u as=0p ps=0u 
M14 a_31_6# CLK a_22_6# Gnd nfet w=1u l=0.2u
+ ad=0p pd=0u as=0p ps=0u 
M15 gnd a_34_4# a_31_6# Gnd nfet w=1u l=0.2u
+ ad=0p pd=0u as=0p ps=0u 
M16 a_34_4# a_22_6# gnd Gnd nfet w=1u l=0.2u
+ ad=0p pd=0u as=0p ps=0u 
M17 a_61_6# a_34_4# gnd Gnd nfet w=1u l=0.2u
+ ad=0p pd=0u as=0p ps=0u 
M18 a_66_6# CLK a_61_6# Gnd nfet w=1u l=0.2u
+ ad=0p pd=0u as=0p ps=0u 
M19 a_76_6# a_2_6# a_66_6# Gnd nfet w=1u l=0.2u
+ ad=0p pd=0u as=0p ps=0u 
M20 gnd Q a_76_6# Gnd nfet w=1u l=0.2u
+ ad=0p pd=0u as=0p ps=0u 
M21 Q a_66_6# gnd Gnd nfet w=2u l=0.2u
+ ad=0p pd=0u as=0p ps=0u 
.ends DFFPOSX1

.subckt DFFSR gnd vdd D S R Q CLK
M0 a_2_6# R vdd vdd pfet w=2u l=0.2u
+ ad=0p pd=0u as=0p ps=0u 
M1 vdd a_10_61# a_2_6# vdd pfet w=2u l=0.2u
+ ad=0p pd=0u as=0p ps=0u 
M2 a_10_61# a_23_27# vdd vdd pfet w=2u l=0.2u
+ ad=0p pd=0u as=0p ps=0u 
M3 vdd S a_10_61# vdd pfet w=2u l=0.2u
+ ad=0p pd=0u as=0p ps=0u 
M4 a_23_27# a_47_71# a_2_6# vdd pfet w=1u l=0.2u
+ ad=0p pd=0u as=0p ps=0u 
M5 a_57_6# a_47_4# a_23_27# vdd pfet w=1u l=0.2u
+ ad=0p pd=0u as=0p ps=0u 
M6 vdd D a_57_6# vdd pfet w=2u l=0.2u
+ ad=0p pd=0u as=0p ps=0u 
M7 vdd a_47_71# a_47_4# vdd pfet w=2u l=0.2u
+ ad=0p pd=0u as=0p ps=0u 
M8 a_47_71# CLK vdd vdd pfet w=2u l=0.2u
+ ad=0p pd=0u as=0p ps=0u 
M9 a_105_6# a_47_71# a_10_61# vdd pfet w=1u l=0.2u
+ ad=0p pd=0u as=0p ps=0u 
M10 a_113_6# a_47_4# a_105_6# vdd pfet w=1u l=0.2u
+ ad=0p pd=0u as=0p ps=0u 
M11 a_122_6# a_105_6# vdd vdd pfet w=2u l=0.2u
+ ad=0p pd=0u as=0p ps=0u 
M12 vdd R a_122_6# vdd pfet w=2u l=0.2u
+ ad=0p pd=0u as=0p ps=0u 
M13 a_113_6# a_122_6# vdd vdd pfet w=2u l=0.2u
+ ad=0p pd=0u as=0p ps=0u 
M14 vdd S a_113_6# vdd pfet w=2u l=0.2u
+ ad=0p pd=0u as=0p ps=0u 
M15 vdd a_122_6# Q vdd pfet w=2u l=0.2u
+ ad=0p pd=0u as=0p ps=0u 
M16 a_10_6# R a_2_6# Gnd nfet w=2u l=0.2u
+ ad=0p pd=0u as=0p ps=0u 
M17 gnd a_10_61# a_10_6# Gnd nfet w=2u l=0.2u
+ ad=0p pd=0u as=0p ps=0u 
M18 a_26_6# a_23_27# gnd Gnd nfet w=2u l=0.2u
+ ad=0p pd=0u as=0p ps=0u 
M19 a_10_61# S a_26_6# Gnd nfet w=2u l=0.2u
+ ad=0p pd=0u as=0p ps=0u 
M20 a_23_27# a_47_4# a_2_6# Gnd nfet w=1u l=0.2u
+ ad=0p pd=0u as=0p ps=0u 
M21 a_57_6# a_47_71# a_23_27# Gnd nfet w=1u l=0.2u
+ ad=0p pd=0u as=0p ps=0u 
M22 gnd D a_57_6# Gnd nfet w=1u l=0.2u
+ ad=0p pd=0u as=0p ps=0u 
M23 gnd a_47_71# a_47_4# Gnd nfet w=1u l=0.2u
+ ad=0p pd=0u as=0p ps=0u 
M24 a_47_71# CLK gnd Gnd nfet w=1u l=0.2u
+ ad=0p pd=0u as=0p ps=0u 
M25 a_105_6# a_47_4# a_10_61# Gnd nfet w=1u l=0.2u
+ ad=0p pd=0u as=0p ps=0u 
M26 a_113_6# a_47_71# a_105_6# Gnd nfet w=1u l=0.2u
+ ad=0p pd=0u as=0p ps=0u 
M27 a_130_6# a_105_6# a_122_6# Gnd nfet w=2u l=0.2u
+ ad=0p pd=0u as=0p ps=0u 
M28 gnd R a_130_6# Gnd nfet w=2u l=0.2u
+ ad=0p pd=0u as=0p ps=0u 
M29 a_146_6# a_122_6# gnd Gnd nfet w=2u l=0.2u
+ ad=0p pd=0u as=0p ps=0u 
M30 a_113_6# S a_146_6# Gnd nfet w=2u l=0.2u
+ ad=0p pd=0u as=0p ps=0u 
M31 gnd a_122_6# Q Gnd nfet w=1u l=0.2u
+ ad=0p pd=0u as=0p ps=0u 
.ends DFFSR

.subckt FAX1 gnd vdd A B C YC YS
M0 vdd A a_2_54# vdd pfet w=4u l=0.2u
+ ad=0p pd=0u as=0p ps=0u 
M1 a_2_54# B vdd vdd pfet w=4u l=0.2u
+ ad=0p pd=0u as=0p ps=0u 
M2 a_25_6# C a_2_54# vdd pfet w=4u l=0.2u
+ ad=0p pd=0u as=0p ps=0u 
M3 a_33_54# B a_25_6# vdd pfet w=4u l=0.2u
+ ad=0p pd=0u as=0p ps=0u 
M4 vdd A a_33_54# vdd pfet w=4u l=0.2u
+ ad=0p pd=0u as=0p ps=0u 
M5 a_46_54# A vdd vdd pfet w=4u l=0.2u
+ ad=0p pd=0u as=0p ps=0u 
M6 vdd B a_46_54# vdd pfet w=3.6u l=0.2u
+ ad=0p pd=0u as=0p ps=0u 
M7 a_46_54# C vdd vdd pfet w=3.6u l=0.2u
+ ad=0p pd=0u as=0p ps=0u 
M8 a_70_6# a_25_6# a_46_54# vdd pfet w=3.6u l=0.2u
+ ad=0p pd=0u as=0p ps=0u 
M9 a_79_46# C a_70_6# vdd pfet w=4.8u l=0.2u
+ ad=0p pd=0u as=0p ps=0u 
M10 a_84_46# B a_79_46# vdd pfet w=4.8u l=0.2u
+ ad=0p pd=0u as=0p ps=0u 
M11 vdd A a_84_46# vdd pfet w=4.8u l=0.2u
+ ad=0p pd=0u as=0p ps=0u 
M12 YS a_70_6# vdd vdd pfet w=2u l=0.2u
+ ad=0p pd=0u as=0p ps=0u 
M13 YC a_25_6# vdd vdd pfet w=2u l=0.2u
+ ad=0p pd=0u as=0p ps=0u 
M14 gnd A a_2_6# Gnd nfet w=2u l=0.2u
+ ad=0p pd=0u as=0p ps=0u 
M15 a_2_6# B gnd Gnd nfet w=2u l=0.2u
+ ad=0p pd=0u as=0p ps=0u 
M16 a_25_6# C a_2_6# Gnd nfet w=2u l=0.2u
+ ad=0p pd=0u as=0p ps=0u 
M17 a_33_6# B a_25_6# Gnd nfet w=2u l=0.2u
+ ad=0p pd=0u as=0p ps=0u 
M18 gnd A a_33_6# Gnd nfet w=2u l=0.2u
+ ad=0p pd=0u as=0p ps=0u 
M19 a_46_6# A gnd Gnd nfet w=2u l=0.2u
+ ad=0p pd=0u as=0p ps=0u 
M20 gnd B a_46_6# Gnd nfet w=2u l=0.2u
+ ad=0p pd=0u as=0p ps=0u 
M21 a_46_6# C gnd Gnd nfet w=2u l=0.2u
+ ad=0p pd=0u as=0p ps=0u 
M22 a_70_6# a_25_6# a_46_6# Gnd nfet w=2u l=0.2u
+ ad=0p pd=0u as=0p ps=0u 
M23 a_79_6# C a_70_6# Gnd nfet w=2u l=0.2u
+ ad=0p pd=0u as=0p ps=0u 
M24 a_84_6# B a_79_6# Gnd nfet w=2u l=0.2u
+ ad=0p pd=0u as=0p ps=0u 
M25 gnd A a_84_6# Gnd nfet w=2u l=0.2u
+ ad=0p pd=0u as=0p ps=0u 
M26 YS a_70_6# gnd Gnd nfet w=1u l=0.2u
+ ad=0p pd=0u as=0p ps=0u 
M27 YC a_25_6# gnd Gnd nfet w=1u l=0.2u
+ ad=0p pd=0u as=0p ps=0u 
.ends FAX1

.subckt FILL vdd gnd
.ends FILL

.subckt HAX1 vdd gnd YC A B YS
M0 vdd A a_2_74# vdd pfet w=2u l=0.2u
+ ad=0p pd=0u as=0p ps=0u 
M1 a_2_74# B vdd vdd pfet w=2u l=0.2u
+ ad=0p pd=0u as=0p ps=0u 
M2 vdd a_2_74# YC vdd pfet w=2u l=0.2u
+ ad=0p pd=0u as=0p ps=0u 
M3 a_41_74# a_2_74# vdd vdd pfet w=2u l=0.2u
+ ad=0p pd=0u as=0p ps=0u 
M4 a_49_54# B a_41_74# vdd pfet w=4u l=0.2u
+ ad=0p pd=0u as=0p ps=0u 
M5 vdd A a_49_54# vdd pfet w=4u l=0.2u
+ ad=0p pd=0u as=0p ps=0u 
M6 YS a_41_74# vdd vdd pfet w=2u l=0.2u
+ ad=0p pd=0u as=0p ps=0u 
M7 a_9_6# A gnd Gnd nfet w=2u l=0.2u
+ ad=0p pd=0u as=0p ps=0u 
M8 a_2_74# B a_9_6# Gnd nfet w=2u l=0.2u
+ ad=0p pd=0u as=0p ps=0u 
M9 gnd a_2_74# YC Gnd nfet w=1u l=0.2u
+ ad=0p pd=0u as=0p ps=0u 
M10 a_38_6# a_2_74# gnd Gnd nfet w=2u l=0.2u
+ ad=0p pd=0u as=0p ps=0u 
M11 a_41_74# B a_38_6# Gnd nfet w=2u l=0.2u
+ ad=0p pd=0u as=0p ps=0u 
M12 a_38_6# A a_41_74# Gnd nfet w=2u l=0.2u
+ ad=0p pd=0u as=0p ps=0u 
M13 YS a_41_74# gnd Gnd nfet w=1u l=0.2u
+ ad=0p pd=0u as=0p ps=0u 
.ends HAX1

.subckt INVX1 A Y vdd gnd
M0 Y A vdd vdd pfet w=2u l=0.2u
+ ad=0p pd=0u as=0p ps=0u 
M1 Y A gnd Gnd nfet w=1u l=0.2u
+ ad=0p pd=0u as=0p ps=0u 
.ends INVX1

.subckt INVX2 vdd gnd Y A
M0 Y A vdd vdd pfet w=4u l=0.2u
+ ad=0p pd=0u as=0p ps=0u 
M1 Y A gnd Gnd nfet w=2u l=0.2u
+ ad=0p pd=0u as=0p ps=0u 
.ends INVX2

.subckt INVX4 vdd gnd Y A
M0 Y A vdd vdd pfet w=4u l=0.2u
+ ad=0p pd=0u as=0p ps=0u 
M1 vdd A Y vdd pfet w=4u l=0.2u
+ ad=0p pd=0u as=0p ps=0u 
M2 Y A gnd Gnd nfet w=2u l=0.2u
+ ad=0p pd=0u as=0p ps=0u 
M3 gnd A Y Gnd nfet w=2u l=0.2u
+ ad=0p pd=0u as=0p ps=0u 
.ends INVX4

.subckt INVX8 vdd gnd A Y
M0 Y A vdd vdd pfet w=4u l=0.2u
+ ad=0p pd=0u as=0p ps=0u 
M1 vdd A Y vdd pfet w=4u l=0.2u
+ ad=0p pd=0u as=0p ps=0u 
M2 Y A vdd vdd pfet w=4u l=0.2u
+ ad=0p pd=0u as=0p ps=0u 
M3 vdd A Y vdd pfet w=4u l=0.2u
+ ad=0p pd=0u as=0p ps=0u 
M4 Y A gnd Gnd nfet w=2u l=0.2u
+ ad=0p pd=0u as=0p ps=0u 
M5 gnd A Y Gnd nfet w=2u l=0.2u
+ ad=0p pd=0u as=0p ps=0u 
M6 Y A gnd Gnd nfet w=2u l=0.2u
+ ad=0p pd=0u as=0p ps=0u 
M7 gnd A Y Gnd nfet w=2u l=0.2u
+ ad=0p pd=0u as=0p ps=0u 
.ends INVX8

.subckt LATCH D Q gnd vdd CLK
M0 vdd CLK a_2_6# vdd pfet w=4u l=0.2u
+ ad=0p pd=0u as=0p ps=0u 
M1 a_18_74# D vdd vdd pfet w=2u l=0.2u
+ ad=0p pd=0u as=0p ps=0u 
M2 a_23_6# a_2_6# a_18_74# vdd pfet w=2u l=0.2u
+ ad=0p pd=0u as=0p ps=0u 
M3 a_35_84# CLK a_23_6# vdd pfet w=1u l=0.2u
+ ad=0p pd=0u as=0p ps=0u 
M4 vdd Q a_35_84# vdd pfet w=1u l=0.2u
+ ad=0p pd=0u as=0p ps=0u 
M5 gnd CLK a_2_6# Gnd nfet w=2u l=0.2u
+ ad=0p pd=0u as=0p ps=0u 
M6 Q a_23_6# vdd vdd pfet w=4u l=0.2u
+ ad=0p pd=0u as=0p ps=0u 
M7 a_18_6# D gnd Gnd nfet w=1u l=0.2u
+ ad=0p pd=0u as=0p ps=0u 
M8 a_23_6# CLK a_18_6# Gnd nfet w=1u l=0.2u
+ ad=0p pd=0u as=0p ps=0u 
M9 a_35_6# a_2_6# a_23_6# Gnd nfet w=1u l=0.2u
+ ad=0p pd=0u as=0p ps=0u 
M10 gnd Q a_35_6# Gnd nfet w=1u l=0.2u
+ ad=0p pd=0u as=0p ps=0u 
M11 Q a_23_6# gnd Gnd nfet w=2u l=0.2u
+ ad=0p pd=0u as=0p ps=0u 
.ends LATCH

.subckt MUX2X1 S vdd gnd Y A B
M0 vdd S a_2_10# vdd pfet w=2u l=0.2u
+ ad=0p pd=0u as=0p ps=0u 
M1 a_17_50# B vdd vdd pfet w=4u l=0.2u
+ ad=0p pd=0u as=0p ps=0u 
M2 Y S a_17_50# vdd pfet w=4u l=0.2u
+ ad=0p pd=0u as=0p ps=0u 
M3 a_30_54# a_2_10# Y vdd pfet w=4u l=0.2u
+ ad=0p pd=0u as=0p ps=0u 
M4 vdd A a_30_54# vdd pfet w=4u l=0.2u
+ ad=0p pd=0u as=0p ps=0u 
M5 gnd S a_2_10# Gnd nfet w=1u l=0.2u
+ ad=0p pd=0u as=0p ps=0u 
M6 a_17_10# B gnd Gnd nfet w=2u l=0.2u
+ ad=0p pd=0u as=0p ps=0u 
M7 Y a_2_10# a_17_10# Gnd nfet w=2u l=0.2u
+ ad=0p pd=0u as=0p ps=0u 
M8 a_30_10# S Y Gnd nfet w=2u l=0.2u
+ ad=0p pd=0u as=0p ps=0u 
M9 gnd A a_30_10# Gnd nfet w=2u l=0.2u
+ ad=0p pd=0u as=0p ps=0u 
.ends MUX2X1

.subckt NAND2X1 vdd Y gnd A B
M0 Y A vdd vdd pfet w=2u l=0.2u
+ ad=0p pd=0u as=0p ps=0u 
M1 vdd B Y vdd pfet w=2u l=0.2u
+ ad=0p pd=0u as=0p ps=0u 
M2 a_9_6# A gnd Gnd nfet w=2u l=0.2u
+ ad=0p pd=0u as=0p ps=0u 
M3 Y B a_9_6# Gnd nfet w=2u l=0.2u
+ ad=0p pd=0u as=0p ps=0u 
.ends NAND2X1

.subckt NAND3X1 B vdd gnd A C Y
M0 Y A vdd vdd pfet w=2u l=0.2u
+ ad=0p pd=0u as=0p ps=0u 
M1 vdd B Y vdd pfet w=2u l=0.2u
+ ad=0p pd=0u as=0p ps=0u 
M2 Y C vdd vdd pfet w=2u l=0.2u
+ ad=0p pd=0u as=0p ps=0u 
M3 a_9_6# A gnd Gnd nfet w=3u l=0.2u
+ ad=0p pd=0u as=0p ps=0u 
M4 a_14_6# B a_9_6# Gnd nfet w=3u l=0.2u
+ ad=0p pd=0u as=0p ps=0u 
M5 Y C a_14_6# Gnd nfet w=3u l=0.2u
+ ad=0p pd=0u as=0p ps=0u 
.ends NAND3X1

.subckt NOR2X1 vdd B gnd Y A
M0 a_9_54# A vdd vdd pfet w=4u l=0.2u
+ ad=0p pd=0u as=0p ps=0u 
M1 Y B a_9_54# vdd pfet w=4u l=0.2u
+ ad=0p pd=0u as=0p ps=0u 
M2 Y A gnd Gnd nfet w=1u l=0.2u
+ ad=0p pd=0u as=0p ps=0u 
M3 gnd B Y Gnd nfet w=1u l=0.2u
+ ad=0p pd=0u as=0p ps=0u 
.ends NOR2X1

.subckt NOR3X1 vdd gnd B C A Y
M0 vdd A a_2_64# vdd pfet w=3u l=0.2u
+ ad=0p pd=0u as=0p ps=0u 
M1 a_2_64# A vdd vdd pfet w=3u l=0.2u
+ ad=0p pd=0u as=0p ps=0u 
M2 a_25_64# B a_2_64# vdd pfet w=3u l=0.2u
+ ad=0p pd=0u as=0p ps=0u 
M3 a_2_64# B a_25_64# vdd pfet w=3u l=0.2u
+ ad=0p pd=0u as=0p ps=0u 
M4 Y C a_25_64# vdd pfet w=3u l=0.2u
+ ad=0p pd=0u as=0p ps=0u 
M5 a_25_64# C Y vdd pfet w=3u l=0.2u
+ ad=0p pd=0u as=0p ps=0u 
M6 Y A gnd Gnd nfet w=1u l=0.2u
+ ad=0p pd=0u as=0p ps=0u 
M7 gnd B Y Gnd nfet w=1u l=0.2u
+ ad=0p pd=0u as=0p ps=0u 
M8 Y C gnd Gnd nfet w=1u l=0.2u
+ ad=0p pd=0u as=0p ps=0u 
.ends NOR3X1

.subckt OAI21X1 gnd vdd A B Y C
M0 a_9_54# A vdd vdd pfet w=4u l=0.2u
+ ad=0p pd=0u as=0p ps=0u 
M1 Y B a_9_54# vdd pfet w=4u l=0.2u
+ ad=0p pd=0u as=0p ps=0u 
M2 vdd C Y vdd pfet w=2u l=0.2u
+ ad=0p pd=0u as=0p ps=0u 
M3 gnd A a_2_6# Gnd nfet w=2u l=0.2u
+ ad=0p pd=0u as=0p ps=0u 
M4 a_2_6# B gnd Gnd nfet w=2u l=0.2u
+ ad=0p pd=0u as=0p ps=0u 
M5 Y C a_2_6# Gnd nfet w=2u l=0.2u
+ ad=0p pd=0u as=0p ps=0u 
.ends OAI21X1

.subckt OAI22X1 gnd vdd D C A B Y
M0 a_9_54# A vdd vdd pfet w=4u l=0.2u
+ ad=0p pd=0u as=0p ps=0u 
M1 Y B a_9_54# vdd pfet w=4u l=0.2u
+ ad=0p pd=0u as=0p ps=0u 
M2 a_28_54# D Y vdd pfet w=4u l=0.2u
+ ad=0p pd=0u as=0p ps=0u 
M3 vdd C a_28_54# vdd pfet w=4u l=0.2u
+ ad=0p pd=0u as=0p ps=0u 
M4 gnd A a_2_6# Gnd nfet w=2u l=0.2u
+ ad=0p pd=0u as=0p ps=0u 
M5 a_2_6# B gnd Gnd nfet w=2u l=0.2u
+ ad=0p pd=0u as=0p ps=0u 
M6 Y D a_2_6# Gnd nfet w=2u l=0.2u
+ ad=0p pd=0u as=0p ps=0u 
M7 a_2_6# C Y Gnd nfet w=2u l=0.2u
+ ad=0p pd=0u as=0p ps=0u 
.ends OAI22X1

.subckt OR2X1 Y B vdd gnd A
M0 a_9_54# A a_2_54# vdd pfet w=4u l=0.2u
+ ad=0p pd=0u as=0p ps=0u 
M1 vdd B a_9_54# vdd pfet w=4u l=0.2u
+ ad=0p pd=0u as=0p ps=0u 
M2 Y a_2_54# vdd vdd pfet w=2u l=0.2u
+ ad=0p pd=0u as=0p ps=0u 
M3 a_2_54# A gnd Gnd nfet w=1u l=0.2u
+ ad=0p pd=0u as=0p ps=0u 
M4 gnd B a_2_54# Gnd nfet w=1u l=0.2u
+ ad=0p pd=0u as=0p ps=0u 
M5 Y a_2_54# gnd Gnd nfet w=1u l=0.2u
+ ad=0p pd=0u as=0p ps=0u 
.ends OR2X1

.subckt OR2X2 Y B vdd gnd A
M0 a_9_54# A a_2_54# vdd pfet w=4u l=0.2u
+ ad=0p pd=0u as=0p ps=0u 
M1 vdd B a_9_54# vdd pfet w=4u l=0.2u
+ ad=0p pd=0u as=0p ps=0u 
M2 Y a_2_54# vdd vdd pfet w=4u l=0.2u
+ ad=0p pd=0u as=0p ps=0u 
M3 a_2_54# A gnd Gnd nfet w=1u l=0.2u
+ ad=0p pd=0u as=0p ps=0u 
M4 gnd B a_2_54# Gnd nfet w=1u l=0.2u
+ ad=0p pd=0u as=0p ps=0u 
M5 Y a_2_54# gnd Gnd nfet w=2u l=0.2u
+ ad=0p pd=0u as=0p ps=0u 
.ends OR2X2

.subckt TBUFX1 vdd gnd EN A Y
M0 a_9_6# EN vdd vdd pfet w=2u l=0.2u
+ ad=0p pd=0u as=0p ps=0u 
M1 a_26_54# a_9_6# Y vdd pfet w=4u l=0.2u
+ ad=0p pd=0u as=0p ps=0u 
M2 vdd A a_26_54# vdd pfet w=4u l=0.2u
+ ad=0p pd=0u as=0p ps=0u 
M3 a_9_6# EN gnd Gnd nfet w=1u l=0.2u
+ ad=0p pd=0u as=0p ps=0u 
M4 a_26_6# EN Y Gnd nfet w=2u l=0.2u
+ ad=0p pd=0u as=0p ps=0u 
M5 gnd A a_26_6# Gnd nfet w=2u l=0.2u
+ ad=0p pd=0u as=0p ps=0u 
.ends TBUFX1

.subckt TBUFX2 vdd gnd A EN Y
M0 a_9_6# EN vdd vdd pfet w=4u l=0.2u
+ ad=0p pd=0u as=0p ps=0u 
M1 Y a_9_6# a_18_54# vdd pfet w=4u l=0.2u
+ ad=0p pd=0u as=0p ps=0u 
M2 a_18_54# a_9_6# Y vdd pfet w=4u l=0.2u
+ ad=0p pd=0u as=0p ps=0u 
M3 vdd A a_18_54# vdd pfet w=4u l=0.2u
+ ad=0p pd=0u as=0p ps=0u 
M4 a_18_54# A vdd vdd pfet w=4u l=0.2u
+ ad=0p pd=0u as=0p ps=0u 
M5 a_9_6# EN gnd Gnd nfet w=2u l=0.2u
+ ad=0p pd=0u as=0p ps=0u 
M6 Y EN a_18_6# Gnd nfet w=2u l=0.2u
+ ad=0p pd=0u as=0p ps=0u 
M7 a_18_6# EN Y Gnd nfet w=2u l=0.2u
+ ad=0p pd=0u as=0p ps=0u 
M8 gnd A a_18_6# Gnd nfet w=2u l=0.2u
+ ad=0p pd=0u as=0p ps=0u 
M9 a_18_6# A gnd Gnd nfet w=2u l=0.2u
+ ad=0p pd=0u as=0p ps=0u 
.ends TBUFX2

.subckt XNOR2X1 A B gnd vdd Y
M0 vdd A a_2_6# vdd pfet w=4u l=0.2u
+ ad=0p pd=0u as=0p ps=0u 
M1 a_18_54# a_12_41# vdd vdd pfet w=4u l=0.2u
+ ad=0p pd=0u as=0p ps=0u 
M2 Y a_2_6# a_18_54# vdd pfet w=4u l=0.2u
+ ad=0p pd=0u as=0p ps=0u 
M3 a_35_54# A Y vdd pfet w=4u l=0.2u
+ ad=0p pd=0u as=0p ps=0u 
M4 vdd B a_35_54# vdd pfet w=4u l=0.2u
+ ad=0p pd=0u as=0p ps=0u 
M5 a_12_41# B vdd vdd pfet w=4u l=0.2u
+ ad=0p pd=0u as=0p ps=0u 
M6 gnd A a_2_6# Gnd nfet w=2u l=0.2u
+ ad=0p pd=0u as=0p ps=0u 
M7 a_18_6# a_12_41# gnd Gnd nfet w=2u l=0.2u
+ ad=0p pd=0u as=0p ps=0u 
M8 Y A a_18_6# Gnd nfet w=2u l=0.2u
+ ad=0p pd=0u as=0p ps=0u 
M9 a_35_6# a_2_6# Y Gnd nfet w=2u l=0.2u
+ ad=0p pd=0u as=0p ps=0u 
M10 gnd B a_35_6# Gnd nfet w=2u l=0.2u
+ ad=0p pd=0u as=0p ps=0u 
M11 a_12_41# B gnd Gnd nfet w=2u l=0.2u
+ ad=0p pd=0u as=0p ps=0u 
.ends XNOR2X1

.subckt XOR2X1 Y vdd B A gnd
M0 vdd A a_2_6# vdd pfet w=4u l=0.2u
+ ad=0p pd=0u as=0p ps=0u 
M1 a_18_54# a_13_43# vdd vdd pfet w=4u l=0.2u
+ ad=0p pd=0u as=0p ps=0u 
M2 Y A a_18_54# vdd pfet w=4u l=0.2u
+ ad=0p pd=0u as=0p ps=0u 
M3 a_35_54# a_2_6# Y vdd pfet w=4u l=0.2u
+ ad=0p pd=0u as=0p ps=0u 
M4 vdd B a_35_54# vdd pfet w=4u l=0.2u
+ ad=0p pd=0u as=0p ps=0u 
M5 a_13_43# B vdd vdd pfet w=4u l=0.2u
+ ad=0p pd=0u as=0p ps=0u 
M6 gnd A a_2_6# Gnd nfet w=2u l=0.2u
+ ad=0p pd=0u as=0p ps=0u 
M7 a_18_6# a_13_43# gnd Gnd nfet w=2u l=0.2u
+ ad=0p pd=0u as=0p ps=0u 
M8 Y a_2_6# a_18_6# Gnd nfet w=2u l=0.2u
+ ad=0p pd=0u as=0p ps=0u 
M9 a_35_6# A Y Gnd nfet w=2u l=0.2u
+ ad=0p pd=0u as=0p ps=0u 
M10 gnd B a_35_6# Gnd nfet w=2u l=0.2u
+ ad=0p pd=0u as=0p ps=0u 
M11 a_13_43# B gnd Gnd nfet w=2u l=0.2u
+ ad=0p pd=0u as=0p ps=0u 
.ends XOR2X1

** End of included library /usr/local/share/qflow/tech/osu018/osu018_stdcells.sp

.subckt selector4 vdd gnd CLK DATA_A[0] DATA_A[1] DATA_A[2] DATA_A[3]
+ DATA_A[4] DATA_A[5] DATA_A[6] DATA_A[7] DATA_A[8] DATA_A[9] DATA_A[10] DATA_A[11]
+ DATA_A[12] DATA_A[13] DATA_A[14] DATA_A[15] DATA_A[16] DATA_A[17] DATA_A[18] DATA_A[19]
+ DATA_A[20] DATA_A[21] DATA_A[22] DATA_A[23] DATA_A[24] DATA_A[25] DATA_A[26] DATA_A[27]
+ DATA_A[28] DATA_A[29] DATA_A[30] DATA_A[31] DATA_B[0] DATA_B[1] DATA_B[2] DATA_B[3]
+ DATA_B[4] DATA_B[5] DATA_B[6] DATA_B[7] DATA_B[8] DATA_B[9] DATA_B[10] DATA_B[11]
+ DATA_B[12] DATA_B[13] DATA_B[14] DATA_B[15] DATA_B[16] DATA_B[17] DATA_B[18] DATA_B[19]
+ DATA_B[20] DATA_B[21] DATA_B[22] DATA_B[23] DATA_B[24] DATA_B[25] DATA_B[26] DATA_B[27]
+ DATA_B[28] DATA_B[29] DATA_B[30] DATA_B[31] NIBBLE_OUT[0] NIBBLE_OUT[1] NIBBLE_OUT[2] NIBBLE_OUT[3]
+ NIBBLE_OUT[4] NIBBLE_OUT[5] NIBBLE_OUT[6] NIBBLE_OUT[7] NIBBLE_OUT[8] NIBBLE_OUT[9] NIBBLE_OUT[10] NIBBLE_OUT[11]
+ NIBBLE_OUT[12] NIBBLE_OUT[13] NIBBLE_OUT[14] NIBBLE_OUT[15] RESET_L SEL[0] SEL[1] SEL[2]
+ SEL[3] sel_A[0] sel_A[1] sel_A[2] sel_A[3] sel_A[4] sel_A[5] sel_A[6]
+ sel_A[7] sel_A[8] sel_A[9] sel_A[10] sel_A[11] sel_B[0] sel_B[1] sel_B[2]
+ sel_B[3] sel_B[4] sel_B[5] sel_B[6] sel_B[7] sel_B[8] sel_B[9] sel_B[10]
+ sel_B[11] 

X_1257_ _557_ vdd gnd _480_ _559_ _560_ NAND3X1
X_800_ vdd _123_ gnd sel_B_2_bF$buf3 _122_ NAND2X1
X_1066_ _372_ vdd gnd sel_B[6] _376_ _377_ NAND3X1
X_1295_ vdd _597_ gnd sel_B_11_bF$buf3 _596_ NAND2X1
X_703_ vdd _28_ gnd sel_A_2_bF$buf4 _27_ NAND2X1
XFILL_7_1 vdd gnd FILL
X_932_ DATA_B[18] _249_ vdd gnd INVX1
X_1198_ vdd _502_ gnd sel_A_11_bF$buf0 _501_ NAND2X1
X_741_ DATA_A[26] _65_ vdd gnd INVX1
XBUFX2_insert30 vdd gnd sel_A[2] sel_A_2_bF$buf4 BUFX2
XBUFX2_insert31 vdd gnd sel_A[2] sel_A_2_bF$buf3 BUFX2
XBUFX2_insert32 vdd gnd sel_A[2] sel_A_2_bF$buf2 BUFX2
XBUFX2_insert33 vdd gnd sel_A[2] sel_A_2_bF$buf1 BUFX2
XBUFX2_insert34 vdd gnd sel_A[2] sel_A_2_bF$buf0 BUFX2
XBUFX2_insert35 vdd gnd sel_B[11] sel_B_11_bF$buf4 BUFX2
XBUFX2_insert36 vdd gnd sel_B[11] sel_B_11_bF$buf3 BUFX2
XBUFX2_insert37 vdd gnd sel_B[11] sel_B_11_bF$buf2 BUFX2
XBUFX2_insert38 vdd gnd sel_B[11] sel_B_11_bF$buf1 BUFX2
XBUFX2_insert39 vdd gnd sel_B[11] sel_B_11_bF$buf0 BUFX2
X_970_ _286_ DATA_B[7] vdd gnd sel_B_5_bF$buf3 OR2X2
X_835_ _309_ vdd gnd _299_ _311_ _312_ NAND3X1
X_1313_ vdd _478_[0] gnd _0_[12] CLK DFFPOSX1
X_644_ vdd gnd _0_[7] NIBBLE_OUT[7] BUFX2
X_1122_ vdd _431_ gnd sel_A_8_bF$buf3 DATA_A[31] NAND2X1
X_873_ _191_ DATA_A[5] vdd gnd sel_A_5_bF$buf3 OR2X2
X_929_ _245_ vdd gnd sel_B[4] _244_ _246_ NAND3X1
X_682_ DATA_B[24] _8_ vdd gnd INVX1
X_738_ DATA_A[18] _62_ vdd gnd INVX1
X_1160_ vdd _623_ gnd sel_A_11_bF$buf2 _622_ NAND2X1
X_1216_ DATA_B[17] _520_ vdd gnd INVX1
X_967_ _283_ DATA_B[11] vdd gnd sel_B_5_bF$buf0 OR2X2
X_1025_ gnd vdd _335_ sel_B_8_bF$buf2 _337_ _336_ OAI21X1
X_776_ _99_ DATA_A[3] vdd gnd sel_A_2_bF$buf1 OR2X2
X_1254_ _557_ DATA_B[6] vdd gnd sel_B_11_bF$buf0 OR2X2
X_1063_ vdd _374_ gnd sel_B_8_bF$buf3 DATA_B[29] NAND2X1
XFILL_13_1_0 vdd gnd FILL
XFILL_13_1_1 vdd gnd FILL
X_1119_ vdd _428_ gnd sel_A_8_bF$buf3 _427_ NAND2X1
X_1292_ _584_ vdd gnd _615_ _593_ _594_ NAND3X1
X_679_ DATA_B[16] _5_ vdd gnd INVX1
X_1157_ vdd _620_ gnd sel_A_11_bF$buf2 _619_ NAND2X1
X_700_ vdd _25_ gnd sel_A_2_bF$buf2 _24_ NAND2X1
X_1195_ gnd vdd _636_ _499_ _478_[0] _614_ AOI21X1
XFILL_5_1_0 vdd gnd FILL
XFILL_5_1_1 vdd gnd FILL
X_1289_ gnd vdd _589_ sel_A_11_bF$buf4 _591_ _590_ OAI21X1
XFILL_0_1_0 vdd gnd FILL
XFILL_0_1_1 vdd gnd FILL
X_832_ _309_ DATA_A[4] vdd gnd sel_A_5_bF$buf1 OR2X2
X_1098_ DATA_B[18] _408_ vdd gnd INVX1
X_1310_ _607_ vdd gnd sel_B[9] _611_ _612_ NAND3X1
X_641_ vdd gnd _0_[4] NIBBLE_OUT[4] BUFX2
X_870_ _188_ DATA_A[9] vdd gnd sel_A_5_bF$buf0 OR2X2
X_926_ DATA_B[30] _243_ vdd gnd INVX1
XFILL_10_0_0 vdd gnd FILL
XFILL_10_0_1 vdd gnd FILL
X_735_ _50_ vdd gnd SEL[0] _59_ _60_ NAND3X1
X_1213_ _512_ vdd gnd sel_A[9] _516_ _517_ NAND3X1
X_964_ _277_ vdd gnd _162_ _279_ _280_ NAND3X1
X_1022_ _331_ vdd gnd _321_ _333_ _334_ NAND3X1
X_773_ _92_ vdd gnd _2_ _96_ _97_ NAND3X1
X_829_ _306_ DATA_A[8] vdd gnd sel_A_5_bF$buf0 OR2X2
X_1251_ vdd _554_ gnd sel_A[10] _553_ NAND2X1
X_1307_ vdd _609_ gnd sel_B_11_bF$buf4 DATA_B[31] NAND2X1
X_638_ vdd gnd _0_[1] NIBBLE_OUT[1] BUFX2
X_1060_ vdd _371_ gnd sel_B_8_bF$buf0 _370_ NAND2X1
XFILL_7_0_0 vdd gnd FILL
XFILL_7_0_1 vdd gnd FILL
X_1116_ _420_ vdd gnd _457_ _424_ _425_ NAND3X1
X_867_ _182_ vdd gnd _299_ _184_ _185_ NAND3X1
XFILL_2_0_0 vdd gnd FILL