* XSpice netlist created from SPICE and liberty sources by spi2xspice.py
*SPICE netlist created from verilog structural netlist module selector4 by vlog2Spice (qflow)
** Start of included library /usr/local/share/qflow/tech/osu018/osu018_stdcells.sp
** End of included library /usr/local/share/qflow/tech/osu018/osu018_stdcells.sp
.subckt selector4 a_vdd a_gnd a_CLK a_DATA_A_0_ a_DATA_A_1_ a_DATA_A_2_ a_DATA_A_3_ a_DATA_A_4_ a_DATA_A_5_ a_DATA_A_6_ a_DATA_A_7_ a_DATA_A_8_ a_DATA_A_9_ a_DATA_A_10_ a_DATA_A_11_ a_DATA_A_12_ a_DATA_A_13_ a_DATA_A_14_ a_DATA_A_15_ a_DATA_A_16_ a_DATA_A_17_ a_DATA_A_18_ a_DATA_A_19_ a_DATA_A_20_ a_DATA_A_21_ a_DATA_A_22_ a_DATA_A_23_ a_DATA_A_24_ a_DATA_A_25_ a_DATA_A_26_ a_DATA_A_27_ a_DATA_A_28_ a_DATA_A_29_ a_DATA_A_30_ a_DATA_A_31_ a_DATA_B_0_ a_DATA_B_1_ a_DATA_B_2_ a_DATA_B_3_ a_DATA_B_4_ a_DATA_B_5_ a_DATA_B_6_ a_DATA_B_7_ a_DATA_B_8_ a_DATA_B_9_ a_DATA_B_10_ a_DATA_B_11_ a_DATA_B_12_ a_DATA_B_13_ a_DATA_B_14_ a_DATA_B_15_ a_DATA_B_16_ a_DATA_B_17_ a_DATA_B_18_ a_DATA_B_19_ a_DATA_B_20_ a_DATA_B_21_ a_DATA_B_22_ a_DATA_B_23_ a_DATA_B_24_ a_DATA_B_25_ a_DATA_B_26_ a_DATA_B_27_ a_DATA_B_28_ a_DATA_B_29_ a_DATA_B_30_ a_DATA_B_31_ a_NIBBLE_OUT_0_ a_NIBBLE_OUT_1_ a_NIBBLE_OUT_2_ a_NIBBLE_OUT_3_ a_NIBBLE_OUT_4_ a_NIBBLE_OUT_5_ a_NIBBLE_OUT_6_ a_NIBBLE_OUT_7_ a_NIBBLE_OUT_8_ a_NIBBLE_OUT_9_ a_NIBBLE_OUT_10_ a_NIBBLE_OUT_11_ a_NIBBLE_OUT_12_ a_NIBBLE_OUT_13_ a_NIBBLE_OUT_14_ a_NIBBLE_OUT_15_ a_RESET_L a_SEL_0_ a_SEL_1_ a_SEL_2_ a_SEL_3_ a_sel_A_0_ a_sel_A_1_ a_sel_A_2_ a_sel_A_3_ a_sel_A_4_ a_sel_A_5_ a_sel_A_6_ a_sel_A_7_ a_sel_A_8_ a_sel_A_9_ a_sel_A_10_ a_sel_A_11_ a_sel_B_0_ a_sel_B_1_ a_sel_B_2_ a_sel_B_3_ a_sel_B_4_ a_sel_B_5_ a_sel_B_6_ a_sel_B_7_ a_sel_B_8_ a_sel_B_9_ a_sel_B_10_ a_sel_B_11_
ABUFX2_insert39 [sel_B_11_] sel_B_11_bF$buf0 d_lut_BUFX2
ABUFX2_insert38 [sel_B_11_] sel_B_11_bF$buf1 d_lut_BUFX2
ABUFX2_insert37 [sel_B_11_] sel_B_11_bF$buf2 d_lut_BUFX2
ABUFX2_insert36 [sel_B_11_] sel_B_11_bF$buf3 d_lut_BUFX2
ABUFX2_insert35 [sel_B_11_] sel_B_11_bF$buf4 d_lut_BUFX2
ABUFX2_insert34 [sel_A_2_] sel_A_2_bF$buf0 d_lut_BUFX2
ABUFX2_insert33 [sel_A_2_] sel_A_2_bF$buf1 d_lut_BUFX2
ABUFX2_insert32 [sel_A_2_] sel_A_2_bF$buf2 d_lut_BUFX2
ABUFX2_insert31 [sel_A_2_] sel_A_2_bF$buf3 d_lut_BUFX2
ABUFX2_insert30 [sel_A_2_] sel_A_2_bF$buf4 d_lut_BUFX2
ABUFX2_insert29 [sel_A_5_] sel_A_5_bF$buf0 d_lut_BUFX2
ABUFX2_insert28 [sel_A_5_] sel_A_5_bF$buf1 d_lut_BUFX2
ABUFX2_insert27 [sel_A_5_] sel_A_5_bF$buf2 d_lut_BUFX2
ABUFX2_insert26 [sel_A_5_] sel_A_5_bF$buf3 d_lut_BUFX2
ABUFX2_insert25 [sel_A_5_] sel_A_5_bF$buf4 d_lut_BUFX2
ABUFX2_insert24 [sel_B_2_] sel_B_2_bF$buf0 d_lut_BUFX2
ABUFX2_insert23 [sel_B_2_] sel_B_2_bF$buf1 d_lut_BUFX2
ABUFX2_insert22 [sel_B_2_] sel_B_2_bF$buf2 d_lut_BUFX2
ABUFX2_insert21 [sel_B_2_] sel_B_2_bF$buf3 d_lut_BUFX2
ABUFX2_insert20 [sel_B_2_] sel_B_2_bF$buf4 d_lut_BUFX2
ABUFX2_insert19 [sel_A_8_] sel_A_8_bF$buf0 d_lut_BUFX2
ABUFX2_insert18 [sel_A_8_] sel_A_8_bF$buf1 d_lut_BUFX2
ABUFX2_insert17 [sel_A_8_] sel_A_8_bF$buf2 d_lut_BUFX2
ABUFX2_insert16 [sel_A_8_] sel_A_8_bF$buf3 d_lut_BUFX2
ABUFX2_insert15 [sel_A_8_] sel_A_8_bF$buf4 d_lut_BUFX2
ABUFX2_insert14 [sel_B_5_] sel_B_5_bF$buf0 d_lut_BUFX2
ABUFX2_insert13 [sel_B_5_] sel_B_5_bF$buf1 d_lut_BUFX2
ABUFX2_insert12 [sel_B_5_] sel_B_5_bF$buf2 d_lut_BUFX2
ABUFX2_insert11 [sel_B_5_] sel_B_5_bF$buf3 d_lut_BUFX2
ABUFX2_insert10 [sel_B_5_] sel_B_5_bF$buf4 d_lut_BUFX2
ABUFX2_insert9 [sel_B_8_] sel_B_8_bF$buf0 d_lut_BUFX2
ABUFX2_insert8 [sel_B_8_] sel_B_8_bF$buf1 d_lut_BUFX2
ABUFX2_insert7 [sel_B_8_] sel_B_8_bF$buf2 d_lut_BUFX2
ABUFX2_insert6 [sel_B_8_] sel_B_8_bF$buf3 d_lut_BUFX2
ABUFX2_insert5 [sel_B_8_] sel_B_8_bF$buf4 d_lut_BUFX2
ABUFX2_insert4 [sel_A_11_] sel_A_11_bF$buf0 d_lut_BUFX2
ABUFX2_insert3 [sel_A_11_] sel_A_11_bF$buf1 d_lut_BUFX2
ABUFX2_insert2 [sel_A_11_] sel_A_11_bF$buf2 d_lut_BUFX2
ABUFX2_insert1 [sel_A_11_] sel_A_11_bF$buf3 d_lut_BUFX2
ABUFX2_insert0 [sel_A_11_] sel_A_11_bF$buf4 d_lut_BUFX2
A_1000_ [sel_B_8_bF$buf4 _469_] _470_ d_lut_NAND2X1
A_1001_ [_458_ _468_ _470_] _471_ d_lut_NAND3X1
A_1002_ [DATA_B_12_] _472_ d_lut_INVX1
A_1003_ [sel_B_8_bF$buf3 DATA_B_28_] _473_ d_lut_NAND2X1
A_1004_ [_472_ sel_B_8_bF$buf2 _473_] _474_ d_lut_OAI21X1
A_1005_ [sel_B_7_ _474_] _475_ d_lut_NAND2X1
A_1006_ [sel_B_6_ _471_ _475_] _476_ d_lut_NAND3X1
A_1007_ [_456_ _467_ _476_] _477_ d_lut_NAND3X1
A_1008_ [sel_A_6_] _320_ d_lut_INVX2
A_1009_ [sel_A_7_] _321_ d_lut_INVX4
A_1010_ [DATA_A_0_ sel_A_8_bF$buf4] _322_ d_lut_OR2X2
A_1011_ [DATA_A_16_] _323_ d_lut_INVX1
A_1012_ [sel_A_8_bF$buf3 _323_] _324_ d_lut_NAND2X1
A_1013_ [_321_ _322_ _324_] _325_ d_lut_NAND3X1
A_1014_ [DATA_A_24_] _326_ d_lut_INVX1
A_1015_ [sel_A_8_bF$buf2 _326_] _327_ d_lut_NAND2X1
A_1016_ [sel_A_8_bF$buf1 DATA_A_8_] _328_ d_lut_OR2X2
A_1017_ [sel_A_7_ _328_ _327_] _329_ d_lut_NAND3X1
A_1018_ [_320_ _325_ _329_] _330_ d_lut_NAND3X1
A_1019_ [sel_A_8_bF$buf0 DATA_A_4_] _331_ d_lut_OR2X2
A_1020_ [DATA_A_20_] _332_ d_lut_INVX1
A_1021_ [sel_A_8_bF$buf4 _332_] _333_ d_lut_NAND2X1
A_1022_ [_321_ _331_ _333_] _334_ d_lut_NAND3X1
A_1023_ [DATA_A_12_] _335_ d_lut_INVX1
A_1024_ [sel_A_8_bF$buf3 DATA_A_28_] _336_ d_lut_NAND2X1
A_1025_ [_335_ sel_A_8_bF$buf2 _336_] _337_ d_lut_OAI21X1
A_1026_ [sel_A_7_ _337_] _338_ d_lut_NAND2X1
A_1027_ [sel_A_6_ _334_ _338_] _339_ d_lut_NAND3X1
A_1028_ [SEL_2_ _330_ _339_] _340_ d_lut_NAND3X1
A_1029_ [_477_ _340_ _455_] _319__0_ d_lut_AOI21X1
A_1030_ [sel_B_8_bF$buf1 DATA_B_1_] _341_ d_lut_OR2X2
A_1031_ [DATA_B_17_] _342_ d_lut_INVX1
A_1032_ [sel_B_8_bF$buf0 _342_] _343_ d_lut_NAND2X1
A_1033_ [_458_ _341_ _343_] _344_ d_lut_NAND3X1
A_1034_ [DATA_B_25_] _345_ d_lut_INVX1
A_1035_ [sel_B_8_bF$buf4 _345_] _346_ d_lut_NAND2X1
A_1036_ [sel_B_8_bF$buf3 DATA_B_9_] _347_ d_lut_OR2X2
A_1037_ [sel_B_7_ _347_ _346_] _348_ d_lut_NAND3X1
A_1038_ [_457_ _344_ _348_] _349_ d_lut_NAND3X1
A_1039_ [sel_B_8_bF$buf2 DATA_B_5_] _350_ d_lut_OR2X2
A_1040_ [DATA_B_21_] _351_ d_lut_INVX1
A_1041_ [sel_B_8_bF$buf1 _351_] _352_ d_lut_NAND2X1
A_1042_ [_458_ _350_ _352_] _353_ d_lut_NAND3X1
A_1043_ [DATA_B_13_] _354_ d_lut_INVX1
A_1044_ [sel_B_8_bF$buf0 DATA_B_29_] _355_ d_lut_NAND2X1
A_1045_ [_354_ sel_B_8_bF$buf4 _355_] _356_ d_lut_OAI21X1
A_1046_ [sel_B_7_ _356_] _357_ d_lut_NAND2X1
A_1047_ [sel_B_6_ _353_ _357_] _358_ d_lut_NAND3X1
A_1048_ [_456_ _349_ _358_] _359_ d_lut_NAND3X1
A_1049_ [sel_A_8_bF$buf1 DATA_A_1_] _360_ d_lut_OR2X2
A_1050_ [DATA_A_17_] _361_ d_lut_INVX1
A_1051_ [sel_A_8_bF$buf0 _361_] _362_ d_lut_NAND2X1
A_1052_ [_321_ _360_ _362_] _363_ d_lut_NAND3X1
A_1053_ [DATA_A_25_] _364_ d_lut_INVX1
A_1054_ [sel_A_8_bF$buf4 _364_] _365_ d_lut_NAND2X1
A_1055_ [sel_A_8_bF$buf3 DATA_A_9_] _366_ d_lut_OR2X2
A_1056_ [sel_A_7_ _366_ _365_] _367_ d_lut_NAND3X1
A_1057_ [_320_ _363_ _367_] _368_ d_lut_NAND3X1
A_1058_ [sel_A_8_bF$buf2 DATA_A_5_] _369_ d_lut_OR2X2
A_1059_ [DATA_A_21_] _370_ d_lut_INVX1
A_1060_ [sel_A_8_bF$buf1 _370_] _371_ d_lut_NAND2X1
A_1061_ [_321_ _369_ _371_] _372_ d_lut_NAND3X1
A_1062_ [DATA_A_13_] _373_ d_lut_INVX1
A_1063_ [sel_A_8_bF$buf0 DATA_A_29_] _374_ d_lut_NAND2X1
A_1064_ [_373_ sel_A_8_bF$buf4 _374_] _375_ d_lut_OAI21X1
A_1065_ [sel_A_7_ _375_] _376_ d_lut_NAND2X1
A_1066_ [sel_A_6_ _372_ _376_] _377_ d_lut_NAND3X1
A_1067_ [SEL_2_ _368_ _377_] _378_ d_lut_NAND3X1
A_1068_ [_359_ _378_ _455_] _319__1_ d_lut_AOI21X1
A_1069_ [sel_B_8_bF$buf3 DATA_B_2_] _379_ d_lut_OR2X2
A_1070_ [DATA_B_18_] _380_ d_lut_INVX1
A_1071_ [sel_B_8_bF$buf2 _380_] _381_ d_lut_NAND2X1
A_1072_ [_458_ _379_ _381_] _382_ d_lut_NAND3X1
A_1073_ [DATA_B_26_] _383_ d_lut_INVX1
A_1074_ [sel_B_8_bF$buf1 _383_] _384_ d_lut_NAND2X1
A_1075_ [sel_B_8_bF$buf0 DATA_B_10_] _385_ d_lut_OR2X2
A_1076_ [sel_B_7_ _385_ _384_] _386_ d_lut_NAND3X1
A_1077_ [_457_ _382_ _386_] _387_ d_lut_NAND3X1
A_1078_ [sel_B_8_bF$buf4 DATA_B_6_] _388_ d_lut_OR2X2
A_1079_ [DATA_B_22_] _389_ d_lut_INVX1
A_1080_ [sel_B_8_bF$buf3 _389_] _390_ d_lut_NAND2X1
A_1081_ [_458_ _388_ _390_] _391_ d_lut_NAND3X1
A_1082_ [DATA_B_14_] _392_ d_lut_INVX1
A_1083_ [sel_B_8_bF$buf2 DATA_B_30_] _393_ d_lut_NAND2X1
A_1084_ [_392_ sel_B_8_bF$buf1 _393_] _394_ d_lut_OAI21X1
A_1085_ [sel_B_7_ _394_] _395_ d_lut_NAND2X1
A_1086_ [sel_B_6_ _391_ _395_] _396_ d_lut_NAND3X1
A_1087_ [_456_ _387_ _396_] _397_ d_lut_NAND3X1
A_1088_ [sel_A_8_bF$buf3 DATA_A_6_] _398_ d_lut_OR2X2
A_1089_ [DATA_A_22_] _399_ d_lut_INVX1
A_1090_ [sel_A_8_bF$buf2 _399_] _400_ d_lut_NAND2X1
A_1091_ [_321_ _398_ _400_] _401_ d_lut_NAND3X1
A_1092_ [DATA_A_30_] _402_ d_lut_INVX1
A_1093_ [sel_A_8_bF$buf1 _402_] _403_ d_lut_NAND2X1
A_1094_ [sel_A_8_bF$buf0 DATA_A_14_] _404_ d_lut_OR2X2
A_1095_ [sel_A_7_ _404_ _403_] _405_ d_lut_NAND3X1
A_1096_ [sel_A_6_ _401_ _405_] _406_ d_lut_NAND3X1
A_1097_ [sel_A_8_bF$buf4 DATA_A_2_] _407_ d_lut_OR2X2
A_1098_ [DATA_A_18_] _408_ d_lut_INVX1
A_1099_ [sel_A_8_bF$buf3 _408_] _409_ d_lut_NAND2X1
A_1100_ [_321_ _407_ _409_] _410_ d_lut_NAND3X1
A_1101_ [DATA_A_10_] _411_ d_lut_INVX1
A_1102_ [sel_A_8_bF$buf2 DATA_A_26_] _412_ d_lut_NAND2X1
A_1103_ [_411_ sel_A_8_bF$buf1 _412_] _413_ d_lut_OAI21X1
A_1104_ [sel_A_7_ _413_] _414_ d_lut_NAND2X1
A_1105_ [_320_ _410_ _414_] _415_ d_lut_NAND3X1
A_1106_ [SEL_2_ _406_ _415_] _416_ d_lut_NAND3X1
A_1107_ [_397_ _416_ _455_] _319__2_ d_lut_AOI21X1
A_1108_ [sel_B_8_bF$buf0 DATA_B_3_] _417_ d_lut_OR2X2
A_1109_ [DATA_B_19_] _418_ d_lut_INVX1
A_1110_ [sel_B_8_bF$buf4 _418_] _419_ d_lut_NAND2X1
A_1111_ [_458_ _417_ _419_] _420_ d_lut_NAND3X1
A_1112_ [DATA_B_27_] _421_ d_lut_INVX1
A_1113_ [sel_B_8_bF$buf3 _421_] _422_ d_lut_NAND2X1
A_1114_ [sel_B_8_bF$buf2 DATA_B_11_] _423_ d_lut_OR2X2
A_1115_ [sel_B_7_ _423_ _422_] _424_ d_lut_NAND3X1
A_1116_ [_457_ _420_ _424_] _425_ d_lut_NAND3X1
A_1117_ [sel_B_8_bF$buf1 DATA_B_7_] _426_ d_lut_OR2X2
A_1118_ [DATA_B_23_] _427_ d_lut_INVX1
A_1119_ [sel_B_8_bF$buf0 _427_] _428_ d_lut_NAND2X1
A_1120_ [_458_ _426_ _428_] _429_ d_lut_NAND3X1
A_1121_ [DATA_B_15_] _430_ d_lut_INVX1
A_1122_ [sel_B_8_bF$buf4 DATA_B_31_] _431_ d_lut_NAND2X1
A_1123_ [_430_ sel_B_8_bF$buf3 _431_] _432_ d_lut_OAI21X1
A_1124_ [sel_B_7_ _432_] _433_ d_lut_NAND2X1
A_1125_ [sel_B_6_ _429_ _433_] _434_ d_lut_NAND3X1
A_1126_ [_456_ _425_ _434_] _435_ d_lut_NAND3X1
A_1127_ [sel_A_8_bF$buf0 DATA_A_3_] _436_ d_lut_OR2X2
A_1128_ [DATA_A_19_] _437_ d_lut_INVX1
A_1129_ [sel_A_8_bF$buf4 _437_] _438_ d_lut_NAND2X1
A_1130_ [_321_ _436_ _438_] _439_ d_lut_NAND3X1
A_1131_ [DATA_A_27_] _440_ d_lut_INVX1
A_1132_ [sel_A_8_bF$buf3 _440_] _441_ d_lut_NAND2X1
A_1133_ [sel_A_8_bF$buf2 DATA_A_11_] _442_ d_lut_OR2X2
A_1134_ [sel_A_7_ _442_ _441_] _443_ d_lut_NAND3X1
A_1135_ [_320_ _439_ _443_] _444_ d_lut_NAND3X1
A_1136_ [sel_A_8_bF$buf1 DATA_A_7_] _445_ d_lut_OR2X2
A_1137_ [DATA_A_23_] _446_ d_lut_INVX1
A_1138_ [sel_A_8_bF$buf0 _446_] _447_ d_lut_NAND2X1
A_1139_ [_321_ _445_ _447_] _448_ d_lut_NAND3X1
A_1140_ [DATA_A_15_] _449_ d_lut_INVX1
A_1141_ [sel_A_8_bF$buf4 DATA_A_31_] _450_ d_lut_NAND2X1
A_1142_ [_449_ sel_A_8_bF$buf3 _450_] _451_ d_lut_OAI21X1
A_1143_ [sel_A_7_ _451_] _452_ d_lut_NAND2X1
A_1144_ [sel_A_6_ _448_ _452_] _453_ d_lut_NAND3X1
A_1145_ [SEL_2_ _444_ _453_] _454_ d_lut_NAND3X1
A_1146_ [_435_ _454_ _455_] _319__3_ d_lut_AOI21X1
A_1147_ _319__0_ CLK NULL NULL _0__8_ NULL ddflop
A_1148_ _319__1_ CLK NULL NULL _0__9_ NULL ddflop
A_1149_ _319__2_ CLK NULL NULL _0__10_ NULL ddflop
A_1150_ _319__3_ CLK NULL NULL _0__11_ NULL ddflop
A_1151_ [RESET_L] _614_ d_lut_INVX2
A_1152_ [SEL_3_] _615_ d_lut_INVX2
A_1153_ [sel_B_9_] _616_ d_lut_INVX2
A_1154_ [sel_B_10_] _617_ d_lut_INVX4
A_1155_ [DATA_B_0_ sel_B_11_bF$buf4] _618_ d_lut_OR2X2
A_1156_ [DATA_B_16_] _619_ d_lut_INVX1
A_1157_ [sel_B_11_bF$buf3 _619_] _620_ d_lut_NAND2X1
A_1158_ [_617_ _618_ _620_] _621_ d_lut_NAND3X1
A_1159_ [DATA_B_24_] _622_ d_lut_INVX1
A_1160_ [sel_B_11_bF$buf2 _622_] _623_ d_lut_NAND2X1
A_1161_ [sel_B_11_bF$buf1 DATA_B_8_] _624_ d_lut_OR2X2
A_1162_ [sel_B_10_ _624_ _623_] _625_ d_lut_NAND3X1
A_1163_ [_616_ _621_ _625_] _626_ d_lut_NAND3X1
A_1164_ [sel_B_11_bF$buf0 DATA_B_4_] _627_ d_lut_OR2X2
A_1165_ [DATA_B_20_] _628_ d_lut_INVX1
A_1166_ [sel_B_11_bF$buf4 _628_] _629_ d_lut_NAND2X1
A_1167_ [_617_ _627_ _629_] _630_ d_lut_NAND3X1
A_1168_ [DATA_B_12_] _631_ d_lut_INVX1
A_1169_ [sel_B_11_bF$buf3 DATA_B_28_] _632_ d_lut_NAND2X1
A_1170_ [_631_ sel_B_11_bF$buf2 _632_] _633_ d_lut_OAI21X1
A_1171_ [sel_B_10_ _633_] _634_ d_lut_NAND2X1
A_1172_ [sel_B_9_ _630_ _634_] _635_ d_lut_NAND3X1
A_1173_ [_615_ _626_ _635_] _636_ d_lut_NAND3X1
A_1174_ [sel_A_9_] _479_ d_lut_INVX2
A_1175_ [sel_A_10_] _480_ d_lut_INVX4
A_1176_ [DATA_A_0_ sel_A_11_bF$buf4] _481_ d_lut_OR2X2
A_1177_ [DATA_A_16_] _482_ d_lut_INVX1
A_1178_ [sel_A_11_bF$buf3 _482_] _483_ d_lut_NAND2X1
A_1179_ [_480_ _481_ _483_] _484_ d_lut_NAND3X1
A_1180_ [DATA_A_24_] _485_ d_lut_INVX1
A_1181_ [sel_A_11_bF$buf2 _485_] _486_ d_lut_NAND2X1
A_1182_ [sel_A_11_bF$buf1 DATA_A_8_] _487_ d_lut_OR2X2
A_1183_ [sel_A_10_ _487_ _486_] _488_ d_lut_NAND3X1
A_1184_ [_479_ _484_ _488_] _489_ d_lut_NAND3X1
A_1185_ [sel_A_11_bF$buf0 DATA_A_4_] _490_ d_lut_OR2X2
A_1186_ [DATA_A_20_] _491_ d_lut_INVX1
A_1187_ [sel_A_11_bF$buf4 _491_] _492_ d_lut_NAND2X1
A_1188_ [_480_ _490_ _492_] _493_ d_lut_NAND3X1
A_1189_ [DATA_A_12_] _494_ d_lut_INVX1
A_1190_ [sel_A_11_bF$buf3 DATA_A_28_] _495_ d_lut_NAND2X1
A_1191_ [_494_ sel_A_11_bF$buf2 _495_] _496_ d_lut_OAI21X1
A_1192_ [sel_A_10_ _496_] _497_ d_lut_NAND2X1
A_1193_ [sel_A_9_ _493_ _497_] _498_ d_lut_NAND3X1
A_1194_ [SEL_3_ _489_ _498_] _499_ d_lut_NAND3X1
A_1195_ [_636_ _499_ _614_] _478__0_ d_lut_AOI21X1
A_1196_ [sel_B_11_bF$buf1 DATA_B_1_] _500_ d_lut_OR2X2
A_1197_ [DATA_B_17_] _501_ d_lut_INVX1
A_1198_ [sel_B_11_bF$buf0 _501_] _502_ d_lut_NAND2X1
A_1199_ [_617_ _500_ _502_] _503_ d_lut_NAND3X1
A_1200_ [DATA_B_25_] _504_ d_lut_INVX1
A_1201_ [sel_B_11_bF$buf4 _504_] _505_ d_lut_NAND2X1
A_1202_ [sel_B_11_bF$buf3 DATA_B_9_] _506_ d_lut_OR2X2
A_1203_ [sel_B_10_ _506_ _505_] _507_ d_lut_NAND3X1
A_1204_ [_616_ _503_ _507_] _508_ d_lut_NAND3X1
A_1205_ [sel_B_11_bF$buf2 DATA_B_5_] _509_ d_lut_OR2X2
A_1206_ [DATA_B_21_] _510_ d_lut_INVX1
A_1207_ [sel_B_11_bF$buf1 _510_] _511_ d_lut_NAND2X1
A_1208_ [_617_ _509_ _511_] _512_ d_lut_NAND3X1
A_1209_ [DATA_B_13_] _513_ d_lut_INVX1
A_1210_ [sel_B_11_bF$buf0 DATA_B_29_] _514_ d_lut_NAND2X1
A_1211_ [_513_ sel_B_11_bF$buf4 _514_] _515_ d_lut_OAI21X1
A_1212_ [sel_B_10_ _515_] _516_ d_lut_NAND2X1
A_1213_ [sel_B_9_ _512_ _516_] _517_ d_lut_NAND3X1
A_1214_ [_615_ _508_ _517_] _518_ d_lut_NAND3X1
A_1215_ [sel_A_11_bF$buf1 DATA_A_1_] _519_ d_lut_OR2X2
A_1216_ [DATA_A_17_] _520_ d_lut_INVX1
A_1217_ [sel_A_11_bF$buf0 _520_] _521_ d_lut_NAND2X1
A_1218_ [_480_ _519_ _521_] _522_ d_lut_NAND3X1
A_1219_ [DATA_A_25_] _523_ d_lut_INVX1
A_1220_ [sel_A_11_bF$buf4 _523_] _524_ d_lut_NAND2X1
A_1221_ [sel_A_11_bF$buf3 DATA_A_9_] _525_ d_lut_OR2X2
A_1222_ [sel_A_10_ _525_ _524_] _526_ d_lut_NAND3X1
A_1223_ [_479_ _522_ _526_] _527_ d_lut_NAND3X1
A_1224_ [sel_A_11_bF$buf2 DATA_A_5_] _528_ d_lut_OR2X2
A_1225_ [DATA_A_21_] _529_ d_lut_INVX1
A_1226_ [sel_A_11_bF$buf1 _529_] _530_ d_lut_NAND2X1
A_1227_ [_480_ _528_ _530_] _531_ d_lut_NAND3X1
A_1228_ [DATA_A_13_] _532_ d_lut_INVX1
A_1229_ [sel_A_11_bF$buf0 DATA_A_29_] _533_ d_lut_NAND2X1
A_1230_ [_532_ sel_A_11_bF$buf4 _533_] _534_ d_lut_OAI21X1
A_1231_ [sel_A_10_ _534_] _535_ d_lut_NAND2X1
A_1232_ [sel_A_9_ _531_ _535_] _536_ d_lut_NAND3X1
A_1233_ [SEL_3_ _527_ _536_] _537_ d_lut_NAND3X1
A_1234_ [_518_ _537_ _614_] _478__1_ d_lut_AOI21X1
A_1235_ [sel_B_11_bF$buf3 DATA_B_2_] _538_ d_lut_OR2X2
A_1236_ [DATA_B_18_] _539_ d_lut_INVX1
A_1237_ [sel_B_11_bF$buf2 _539_] _540_ d_lut_NAND2X1
A_1238_ [_617_ _538_ _540_] _541_ d_lut_NAND3X1
A_1239_ [DATA_B_26_] _542_ d_lut_INVX1
A_1240_ [sel_B_11_bF$buf1 _542_] _543_ d_lut_NAND2X1
A_1241_ [sel_B_11_bF$buf0 DATA_B_10_] _544_ d_lut_OR2X2
A_1242_ [sel_B_10_ _544_ _543_] _545_ d_lut_NAND3X1
A_1243_ [_616_ _541_ _545_] _546_ d_lut_NAND3X1
A_1244_ [sel_B_11_bF$buf4 DATA_B_6_] _547_ d_lut_OR2X2
A_1245_ [DATA_B_22_] _548_ d_lut_INVX1
A_1246_ [sel_B_11_bF$buf3 _548_] _549_ d_lut_NAND2X1
A_1247_ [_617_ _547_ _549_] _550_ d_lut_NAND3X1
A_1248_ [DATA_B_14_] _551_ d_lut_INVX1
A_1249_ [sel_B_11_bF$buf2 DATA_B_30_] _552_ d_lut_NAND2X1
A_1250_ [_551_ sel_B_11_bF$buf1 _552_] _553_ d_lut_OAI21X1
A_1251_ [sel_B_10_ _553_] _554_ d_lut_NAND2X1
A_1252_ [sel_B_9_ _550_ _554_] _555_ d_lut_NAND3X1
A_1253_ [_615_ _546_ _555_] _556_ d_lut_NAND3X1
A_1254_ [sel_A_11_bF$buf3 DATA_A_6_] _557_ d_lut_OR2X2
A_1255_ [DATA_A_22_] _558_ d_lut_INVX1
A_1256_ [sel_A_11_bF$buf2 _558_] _559_ d_lut_NAND2X1
A_1257_ [_480_ _557_ _559_] _560_ d_lut_NAND3X1
A_1258_ [DATA_A_30_] _561_ d_lut_INVX1
A_1259_ [sel_A_11_bF$buf1 _561_] _562_ d_lut_NAND2X1
A_1260_ [sel_A_11_bF$buf0 DATA_A_14_] _563_ d_lut_OR2X2
A_1261_ [sel_A_10_ _563_ _562_] _564_ d_lut_NAND3X1
A_1262_ [sel_A_9_ _560_ _564_] _565_ d_lut_NAND3X1
A_1263_ [sel_A_11_bF$buf4 DATA_A_2_] _566_ d_lut_OR2X2
A_1264_ [DATA_A_18_] _567_ d_lut_INVX1
A_1265_ [sel_A_11_bF$buf3 _567_] _568_ d_lut_NAND2X1
A_1266_ [_480_ _566_ _568_] _569_ d_lut_NAND3X1
A_1267_ [DATA_A_10_] _570_ d_lut_INVX1
A_1268_ [sel_A_11_bF$buf2 DATA_A_26_] _571_ d_lut_NAND2X1
A_1269_ [_570_ sel_A_11_bF$buf1 _571_] _572_ d_lut_OAI21X1
A_1270_ [sel_A_10_ _572_] _573_ d_lut_NAND2X1
A_1271_ [_479_ _569_ _573_] _574_ d_lut_NAND3X1
A_1272_ [SEL_3_ _565_ _574_] _575_ d_lut_NAND3X1
A_1273_ [_556_ _575_ _614_] _478__2_ d_lut_AOI21X1
A_1274_ [sel_B_11_bF$buf0 DATA_B_3_] _576_ d_lut_OR2X2
A_1275_ [DATA_B_19_] _577_ d_lut_INVX1
A_1276_ [sel_B_11_bF$buf4 _577_] _578_ d_lut_NAND2X1
A_1277_ [_617_ _576_ _578_] _579_ d_lut_NAND3X1
A_1278_ [DATA_B_27_] _580_ d_lut_INVX1
A_1279_ [sel_B_11_bF$buf3 _580_] _581_ d_lut_NAND2X1
A_1280_ [sel_B_11_bF$buf2 DATA_B_11_] _582_ d_lut_OR2X2
A_1281_ [sel_B_10_ _582_ _581_] _583_ d_lut_NAND3X1
A_1282_ [_616_ _579_ _583_] _584_ d_lut_NAND3X1
A_1283_ [sel_B_11_bF$buf1 DATA_B_7_] _585_ d_lut_OR2X2
A_1284_ [DATA_B_23_] _586_ d_lut_INVX1
A_1285_ [sel_B_11_bF$buf0 _586_] _587_ d_lut_NAND2X1
A_1286_ [_617_ _585_ _587_] _588_ d_lut_NAND3X1
A_1287_ [DATA_B_15_] _589_ d_lut_INVX1
A_1288_ [sel_B_11_bF$buf4 DATA_B_31_] _590_ d_lut_NAND2X1
A_1289_ [_589_ sel_B_11_bF$buf3 _590_] _591_ d_lut_OAI21X1
A_1290_ [sel_B_10_ _591_] _592_ d_lut_NAND2X1
A_1291_ [sel_B_9_ _588_ _592_] _593_ d_lut_NAND3X1
A_1292_ [_615_ _584_ _593_] _594_ d_lut_NAND3X1
A_1293_ [sel_A_11_bF$buf0 DATA_A_3_] _595_ d_lut_OR2X2
A_1294_ [DATA_A_19_] _596_ d_lut_INVX1
A_1295_ [sel_A_11_bF$buf4 _596_] _597_ d_lut_NAND2X1
A_1296_ [_480_ _595_ _597_] _598_ d_lut_NAND3X1
A_1297_ [DATA_A_27_] _599_ d_lut_INVX1
A_1298_ [sel_A_11_bF$buf3 _599_] _600_ d_lut_NAND2X1
A_1299_ [sel_A_11_bF$buf2 DATA_A_11_] _601_ d_lut_OR2X2
A_1300_ [sel_A_10_ _601_ _600_] _602_ d_lut_NAND3X1
A_1301_ [_479_ _598_ _602_] _603_ d_lut_NAND3X1
A_1302_ [sel_A_11_bF$buf1 DATA_A_7_] _604_ d_lut_OR2X2
A_1303_ [DATA_A_23_] _605_ d_lut_INVX1
A_1304_ [sel_A_11_bF$buf0 _605_] _606_ d_lut_NAND2X1
A_1305_ [_480_ _604_ _606_] _607_ d_lut_NAND3X1
A_1306_ [DATA_A_15_] _608_ d_lut_INVX1
A_1307_ [sel_A_11_bF$buf4 DATA_A_31_] _609_ d_lut_NAND2X1
A_1308_ [_608_ sel_A_11_bF$buf3 _609_] _610_ d_lut_OAI21X1
A_1309_ [sel_A_10_ _610_] _611_ d_lut_NAND2X1
A_1310_ [sel_A_9_ _607_ _611_] _612_ d_lut_NAND3X1
A_1311_ [SEL_3_ _603_ _612_] _613_ d_lut_NAND3X1
A_1312_ [_594_ _613_ _614_] _478__3_ d_lut_AOI21X1
A_1313_ _478__0_ CLK NULL NULL _0__12_ NULL ddflop
A_1314_ _478__1_ CLK NULL NULL _0__13_ NULL ddflop
A_1315_ _478__2_ CLK NULL NULL _0__14_ NULL ddflop
A_1316_ _478__3_ CLK NULL NULL _0__15_ NULL ddflop
A_637_ [_0__0_] NIBBLE_OUT_0_ d_lut_BUFX2
A_638_ [_0__1_] NIBBLE_OUT_1_ d_lut_BUFX2
A_639_ [_0__2_] NIBBLE_OUT_2_ d_lut_BUFX2
A_640_ [_0__3_] NIBBLE_OUT_3_ d_lut_BUFX2
A_641_ [_0__4_] NIBBLE_OUT_4_ d_lut_BUFX2
A_642_ [_0__5_] NIBBLE_OUT_5_ d_lut_BUFX2
A_643_ [_0__6_] NIBBLE_OUT_6_ d_lut_BUFX2
A_644_ [_0__7_] NIBBLE_OUT_7_ d_lut_BUFX2
A_645_ [_0__8_] NIBBLE_OUT_8_ d_lut_BUFX2
A_646_ [_0__9_] NIBBLE_OUT_9_ d_lut_BUFX2
A_647_ [_0__10_] NIBBLE_OUT_10_ d_lut_BUFX2
A_648_ [_0__11_] NIBBLE_OUT_11_ d_lut_BUFX2
A_649_ [_0__12_] NIBBLE_OUT_12_ d_lut_BUFX2
A_650_ [_0__13_] NIBBLE_OUT_13_ d_lut_BUFX2
A_651_ [_0__14_] NIBBLE_OUT_14_ d_lut_BUFX2
A_652_ [_0__15_] NIBBLE_OUT_15_ d_lut_BUFX2
A_653_ [RESET_L] _137_ d_lut_INVX2
A_654_ [SEL_0_] _138_ d_lut_INVX2
A_655_ [sel_B_0_] _139_ d_lut_INVX2
A_656_ [sel_B_1_] _140_ d_lut_INVX4
A_657_ [DATA_B_0_ sel_B_2_bF$buf4] _141_ d_lut_OR2X2
A_658_ [DATA_B_16_] _142_ d_lut_INVX1
A_659_ [sel_B_2_bF$buf3 _142_] _143_ d_lut_NAND2X1
A_660_ [_140_ _141_ _143_] _144_ d_lut_NAND3X1
A_661_ [DATA_B_24_] _145_ d_lut_INVX1
A_662_ [sel_B_2_bF$buf2 _145_] _146_ d_lut_NAND2X1
A_663_ [sel_B_2_bF$buf1 DATA_B_8_] _147_ d_lut_OR2X2
A_664_ [sel_B_1_ _147_ _146_] _148_ d_lut_NAND3X1
A_665_ [_139_ _144_ _148_] _149_ d_lut_NAND3X1
A_666_ [sel_B_2_bF$buf0 DATA_B_4_] _150_ d_lut_OR2X2
A_667_ [DATA_B_20_] _151_ d_lut_INVX1
A_668_ [sel_B_2_bF$buf4 _151_] _152_ d_lut_NAND2X1
A_669_ [_140_ _150_ _152_] _153_ d_lut_NAND3X1
A_670_ [DATA_B_12_] _154_ d_lut_INVX1
A_671_ [sel_B_2_bF$buf3 DATA_B_28_] _155_ d_lut_NAND2X1
A_672_ [_154_ sel_B_2_bF$buf2 _155_] _156_ d_lut_OAI21X1
A_673_ [sel_B_1_ _156_] _157_ d_lut_NAND2X1
A_674_ [sel_B_0_ _153_ _157_] _158_ d_lut_NAND3X1
A_675_ [_138_ _149_ _158_] _159_ d_lut_NAND3X1
A_676_ [sel_A_0_] _2_ d_lut_INVX2
A_677_ [sel_A_1_] _3_ d_lut_INVX4
A_678_ [DATA_A_0_ sel_A_2_bF$buf4] _4_ d_lut_OR2X2
A_679_ [DATA_A_16_] _5_ d_lut_INVX1
A_680_ [sel_A_2_bF$buf3 _5_] _6_ d_lut_NAND2X1
A_681_ [_3_ _4_ _6_] _7_ d_lut_NAND3X1
A_682_ [DATA_A_24_] _8_ d_lut_INVX1
A_683_ [sel_A_2_bF$buf2 _8_] _9_ d_lut_NAND2X1
A_684_ [sel_A_2_bF$buf1 DATA_A_8_] _10_ d_lut_OR2X2
A_685_ [sel_A_1_ _10_ _9_] _11_ d_lut_NAND3X1
A_686_ [_2_ _7_ _11_] _12_ d_lut_NAND3X1
A_687_ [sel_A_2_bF$buf0 DATA_A_4_] _13_ d_lut_OR2X2
A_688_ [DATA_A_20_] _14_ d_lut_INVX1
A_689_ [sel_A_2_bF$buf4 _14_] _15_ d_lut_NAND2X1
A_690_ [_3_ _13_ _15_] _16_ d_lut_NAND3X1
A_691_ [DATA_A_12_] _17_ d_lut_INVX1
A_692_ [sel_A_2_bF$buf3 DATA_A_28_] _18_ d_lut_NAND2X1
A_693_ [_17_ sel_A_2_bF$buf2 _18_] _19_ d_lut_OAI21X1
A_694_ [sel_A_1_ _19_] _20_ d_lut_NAND2X1
A_695_ [sel_A_0_ _16_ _20_] _21_ d_lut_NAND3X1
A_696_ [SEL_0_ _12_ _21_] _22_ d_lut_NAND3X1
A_697_ [_159_ _22_ _137_] _1__0_ d_lut_AOI21X1
A_698_ [sel_B_2_bF$buf1 DATA_B_1_] _23_ d_lut_OR2X2
A_699_ [DATA_B_17_] _24_ d_lut_INVX1
A_700_ [sel_B_2_bF$buf0 _24_] _25_ d_lut_NAND2X1
A_701_ [_140_ _23_ _25_] _26_ d_lut_NAND3X1
A_702_ [DATA_B_25_] _27_ d_lut_INVX1
A_703_ [sel_B_2_bF$buf4 _27_] _28_ d_lut_NAND2X1
A_704_ [sel_B_2_bF$buf3 DATA_B_9_] _29_ d_lut_OR2X2
A_705_ [sel_B_1_ _29_ _28_] _30_ d_lut_NAND3X1
A_706_ [_139_ _26_ _30_] _31_ d_lut_NAND3X1
A_707_ [sel_B_2_bF$buf2 DATA_B_5_] _32_ d_lut_OR2X2
A_708_ [DATA_B_21_] _33_ d_lut_INVX1
A_709_ [sel_B_2_bF$buf1 _33_] _34_ d_lut_NAND2X1
A_710_ [_140_ _32_ _34_] _35_ d_lut_NAND3X1
A_711_ [DATA_B_13_] _36_ d_lut_INVX1
A_712_ [sel_B_2_bF$buf0 DATA_B_29_] _37_ d_lut_NAND2X1
A_713_ [_36_ sel_B_2_bF$buf4 _37_] _38_ d_lut_OAI21X1
A_714_ [sel_B_1_ _38_] _39_ d_lut_NAND2X1
A_715_ [sel_B_0_ _35_ _39_] _40_ d_lut_NAND3X1
A_716_ [_138_ _31_ _40_] _41_ d_lut_NAND3X1
A_717_ [sel_A_2_bF$buf1 DATA_A_1_] _42_ d_lut_OR2X2
A_718_ [DATA_A_17_] _43_ d_lut_INVX1
A_719_ [sel_A_2_bF$buf0 _43_] _44_ d_lut_NAND2X1
A_720_ [_3_ _42_ _44_] _45_ d_lut_NAND3X1
A_721_ [DATA_A_25_] _46_ d_lut_INVX1
A_722_ [sel_A_2_bF$buf4 _46_] _47_ d_lut_NAND2X1
A_723_ [sel_A_2_bF$buf3 DATA_A_9_] _48_ d_lut_OR2X2
A_724_ [sel_A_1_ _48_ _47_] _49_ d_lut_NAND3X1
A_725_ [_2_ _45_ _49_] _50_ d_lut_NAND3X1
A_726_ [sel_A_2_bF$buf2 DATA_A_5_] _51_ d_lut_OR2X2
A_727_ [DATA_A_21_] _52_ d_lut_INVX1
A_728_ [sel_A_2_bF$buf1 _52_] _53_ d_lut_NAND2X1
A_729_ [_3_ _51_ _53_] _54_ d_lut_NAND3X1
A_730_ [DATA_A_13_] _55_ d_lut_INVX1
A_731_ [sel_A_2_bF$buf0 DATA_A_29_] _56_ d_lut_NAND2X1
A_732_ [_55_ sel_A_2_bF$buf4 _56_] _57_ d_lut_OAI21X1
A_733_ [sel_A_1_ _57_] _58_ d_lut_NAND2X1
A_734_ [sel_A_0_ _54_ _58_] _59_ d_lut_NAND3X1
A_735_ [SEL_0_ _50_ _59_] _60_ d_lut_NAND3X1
A_736_ [_41_ _60_ _137_] _1__1_ d_lut_AOI21X1
A_737_ [sel_B_2_bF$buf3 DATA_B_2_] _61_ d_lut_OR2X2
A_738_ [DATA_B_18_] _62_ d_lut_INVX1
A_739_ [sel_B_2_bF$buf2 _62_] _63_ d_lut_NAND2X1
A_740_ [_140_ _61_ _63_] _64_ d_lut_NAND3X1
A_741_ [DATA_B_26_] _65_ d_lut_INVX1
A_742_ [sel_B_2_bF$buf1 _65_] _66_ d_lut_NAND2X1
A_743_ [sel_B_2_bF$buf0 DATA_B_10_] _67_ d_lut_OR2X2
A_744_ [sel_B_1_ _67_ _66_] _68_ d_lut_NAND3X1
A_745_ [_139_ _64_ _68_] _69_ d_lut_NAND3X1
A_746_ [sel_B_2_bF$buf4 DATA_B_6_] _70_ d_lut_OR2X2
A_747_ [DATA_B_22_] _71_ d_lut_INVX1
A_748_ [sel_B_2_bF$buf3 _71_] _72_ d_lut_NAND2X1
A_749_ [_140_ _70_ _72_] _73_ d_lut_NAND3X1
A_750_ [DATA_B_14_] _74_ d_lut_INVX1
A_751_ [sel_B_2_bF$buf2 DATA_B_30_] _75_ d_lut_NAND2X1
A_752_ [_74_ sel_B_2_bF$buf1 _75_] _76_ d_lut_OAI21X1
A_753_ [sel_B_1_ _76_] _77_ d_lut_NAND2X1
A_754_ [sel_B_0_ _73_ _77_] _78_ d_lut_NAND3X1
A_755_ [_138_ _69_ _78_] _79_ d_lut_NAND3X1
A_756_ [sel_A_2_bF$buf3 DATA_A_6_] _80_ d_lut_OR2X2
A_757_ [DATA_A_22_] _81_ d_lut_INVX1
A_758_ [sel_A_2_bF$buf2 _81_] _82_ d_lut_NAND2X1
A_759_ [_3_ _80_ _82_] _83_ d_lut_NAND3X1
A_760_ [DATA_A_30_] _84_ d_lut_INVX1
A_761_ [sel_A_2_bF$buf1 _84_] _85_ d_lut_NAND2X1
A_762_ [sel_A_2_bF$buf0 DATA_A_14_] _86_ d_lut_OR2X2
A_763_ [sel_A_1_ _86_ _85_] _87_ d_lut_NAND3X1
A_764_ [sel_A_0_ _83_ _87_] _88_ d_lut_NAND3X1
A_765_ [sel_A_2_bF$buf4 DATA_A_2_] _89_ d_lut_OR2X2
A_766_ [DATA_A_18_] _90_ d_lut_INVX1
A_767_ [sel_A_2_bF$buf3 _90_] _91_ d_lut_NAND2X1
A_768_ [_3_ _89_ _91_] _92_ d_lut_NAND3X1
A_769_ [DATA_A_10_] _93_ d_lut_INVX1
A_770_ [sel_A_2_bF$buf2 DATA_A_26_] _94_ d_lut_NAND2X1
A_771_ [_93_ sel_A_2_bF$buf1 _94_] _95_ d_lut_OAI21X1
A_772_ [sel_A_1_ _95_] _96_ d_lut_NAND2X1
A_773_ [_2_ _92_ _96_] _97_ d_lut_NAND3X1
A_774_ [SEL_0_ _88_ _97_] _98_ d_lut_NAND3X1
A_775_ [_79_ _98_ _137_] _1__2_ d_lut_AOI21X1
A_776_ [sel_B_2_bF$buf0 DATA_B_3_] _99_ d_lut_OR2X2
A_777_ [DATA_B_19_] _100_ d_lut_INVX1
A_778_ [sel_B_2_bF$buf4 _100_] _101_ d_lut_NAND2X1
A_779_ [_140_ _99_ _101_] _102_ d_lut_NAND3X1
A_780_ [DATA_B_27_] _103_ d_lut_INVX1
A_781_ [sel_B_2_bF$buf3 _103_] _104_ d_lut_NAND2X1
A_782_ [sel_B_2_bF$buf2 DATA_B_11_] _105_ d_lut_OR2X2
A_783_ [sel_B_1_ _105_ _104_] _106_ d_lut_NAND3X1
A_784_ [_139_ _102_ _106_] _107_ d_lut_NAND3X1
A_785_ [sel_B_2_bF$buf1 DATA_B_7_] _108_ d_lut_OR2X2
A_786_ [DATA_B_23_] _109_ d_lut_INVX1
A_787_ [sel_B_2_bF$buf0 _109_] _110_ d_lut_NAND2X1
A_788_ [_140_ _108_ _110_] _111_ d_lut_NAND3X1
A_789_ [DATA_B_15_] _112_ d_lut_INVX1
A_790_ [sel_B_2_bF$buf4 DATA_B_31_] _113_ d_lut_NAND2X1
A_791_ [_112_ sel_B_2_bF$buf3 _113_] _114_ d_lut_OAI21X1
A_792_ [sel_B_1_ _114_] _115_ d_lut_NAND2X1
A_793_ [sel_B_0_ _111_ _115_] _116_ d_lut_NAND3X1
A_794_ [_138_ _107_ _116_] _117_ d_lut_NAND3X1
A_795_ [sel_A_2_bF$buf0 DATA_A_3_] _118_ d_lut_OR2X2
A_796_ [DATA_A_19_] _119_ d_lut_INVX1
A_797_ [sel_A_2_bF$buf4 _119_] _120_ d_lut_NAND2X1
A_798_ [_3_ _118_ _120_] _121_ d_lut_NAND3X1
A_799_ [DATA_A_27_] _122_ d_lut_INVX1
A_800_ [sel_A_2_bF$buf3 _122_] _123_ d_lut_NAND2X1
A_801_ [sel_A_2_bF$buf2 DATA_A_11_] _124_ d_lut_OR2X2
A_802_ [sel_A_1_ _124_ _123_] _125_ d_lut_NAND3X1
A_803_ [_2_ _121_ _125_] _126_ d_lut_NAND3X1
A_804_ [sel_A_2_bF$buf1 DATA_A_7_] _127_ d_lut_OR2X2
A_805_ [DATA_A_23_] _128_ d_lut_INVX1
A_806_ [sel_A_2_bF$buf0 _128_] _129_ d_lut_NAND2X1
A_807_ [_3_ _127_ _129_] _130_ d_lut_NAND3X1
A_808_ [DATA_A_15_] _131_ d_lut_INVX1
A_809_ [sel_A_2_bF$buf4 DATA_A_31_] _132_ d_lut_NAND2X1
A_810_ [_131_ sel_A_2_bF$buf3 _132_] _133_ d_lut_OAI21X1
A_811_ [sel_A_1_ _133_] _134_ d_lut_NAND2X1
A_812_ [sel_A_0_ _130_ _134_] _135_ d_lut_NAND3X1
A_813_ [SEL_0_ _126_ _135_] _136_ d_lut_NAND3X1
A_814_ [_117_ _136_ _137_] _1__3_ d_lut_AOI21X1
A_815_ _1__0_ CLK NULL NULL _0__0_ NULL ddflop
A_816_ _1__1_ CLK NULL NULL _0__1_ NULL ddflop
A_817_ _1__2_ CLK NULL NULL _0__2_ NULL ddflop
A_818_ _1__3_ CLK NULL NULL _0__3_ NULL ddflop
A_819_ [RESET_L] _296_ d_lut_INVX2
A_820_ [SEL_1_] _297_ d_lut_INVX2
A_821_ [sel_B_3_] _298_ d_lut_INVX2
A_822_ [sel_B_4_] _299_ d_lut_INVX4
A_823_ [DATA_B_0_ sel_B_5_bF$buf4] _300_ d_lut_OR2X2
A_824_ [DATA_B_16_] _301_ d_lut_INVX1
A_825_ [sel_B_5_bF$buf3 _301_] _302_ d_lut_NAND2X1
A_826_ [_299_ _300_ _302_] _303_ d_lut_NAND3X1
A_827_ [DATA_B_24_] _304_ d_lut_INVX1
A_828_ [sel_B_5_bF$buf2 _304_] _305_ d_lut_NAND2X1
A_829_ [sel_B_5_bF$buf1 DATA_B_8_] _306_ d_lut_OR2X2
A_830_ [sel_B_4_ _306_ _305_] _307_ d_lut_NAND3X1
A_831_ [_298_ _303_ _307_] _308_ d_lut_NAND3X1
A_832_ [sel_B_5_bF$buf0 DATA_B_4_] _309_ d_lut_OR2X2
A_833_ [DATA_B_20_] _310_ d_lut_INVX1
A_834_ [sel_B_5_bF$buf4 _310_] _311_ d_lut_NAND2X1
A_835_ [_299_ _309_ _311_] _312_ d_lut_NAND3X1
A_836_ [DATA_B_12_] _313_ d_lut_INVX1
A_837_ [sel_B_5_bF$buf3 DATA_B_28_] _314_ d_lut_NAND2X1
A_838_ [_313_ sel_B_5_bF$buf2 _314_] _315_ d_lut_OAI21X1
A_839_ [sel_B_4_ _315_] _316_ d_lut_NAND2X1
A_840_ [sel_B_3_ _312_ _316_] _317_ d_lut_NAND3X1
A_841_ [_297_ _308_ _317_] _318_ d_lut_NAND3X1
A_842_ [sel_A_3_] _161_ d_lut_INVX2
A_843_ [sel_A_4_] _162_ d_lut_INVX4
A_844_ [DATA_A_0_ sel_A_5_bF$buf4] _163_ d_lut_OR2X2
A_845_ [DATA_A_16_] _164_ d_lut_INVX1
A_846_ [sel_A_5_bF$buf3 _164_] _165_ d_lut_NAND2X1
A_847_ [_162_ _163_ _165_] _166_ d_lut_NAND3X1
A_848_ [DATA_A_24_] _167_ d_lut_INVX1
A_849_ [sel_A_5_bF$buf2 _167_] _168_ d_lut_NAND2X1
A_850_ [sel_A_5_bF$buf1 DATA_A_8_] _169_ d_lut_OR2X2
A_851_ [sel_A_4_ _169_ _168_] _170_ d_lut_NAND3X1
A_852_ [_161_ _166_ _170_] _171_ d_lut_NAND3X1
A_853_ [sel_A_5_bF$buf0 DATA_A_4_] _172_ d_lut_OR2X2
A_854_ [DATA_A_20_] _173_ d_lut_INVX1
A_855_ [sel_A_5_bF$buf4 _173_] _174_ d_lut_NAND2X1
A_856_ [_162_ _172_ _174_] _175_ d_lut_NAND3X1
A_857_ [DATA_A_12_] _176_ d_lut_INVX1
A_858_ [sel_A_5_bF$buf3 DATA_A_28_] _177_ d_lut_NAND2X1
A_859_ [_176_ sel_A_5_bF$buf2 _177_] _178_ d_lut_OAI21X1
A_860_ [sel_A_4_ _178_] _179_ d_lut_NAND2X1
A_861_ [sel_A_3_ _175_ _179_] _180_ d_lut_NAND3X1
A_862_ [SEL_1_ _171_ _180_] _181_ d_lut_NAND3X1
A_863_ [_318_ _181_ _296_] _160__0_ d_lut_AOI21X1
A_864_ [sel_B_5_bF$buf1 DATA_B_1_] _182_ d_lut_OR2X2
A_865_ [DATA_B_17_] _183_ d_lut_INVX1